20
-1547.65778500
Au   1.896850  -0.000011   1.070937
Au  -1.896850   0.000011   1.070937
Au   0.000005   1.896603   1.070067
Au  -0.000005  -1.896603   1.070067
Au  -4.130415   0.000001  -2.852109
Au   4.130415  -0.000001  -2.852109
Au   0.000004  -4.130747  -2.852771
Au  -0.000004   4.130747  -2.852771
Au  -1.844413  -0.000002  -1.600859
Au   1.844413   0.000002  -1.600859
Au   0.000001  -1.844549  -1.602163
Au  -0.000001   1.844549  -1.602163
Au  -1.840651  -0.000003   3.657019
Au   1.840651   0.000003   3.657019
Au   0.000001  -1.835595   3.656138
Au  -0.000001   1.835595   3.656138
Au  -4.104216   0.000000  -0.272805
Au   4.104216  -0.000000  -0.272805
Au   0.000001  -4.104084  -0.273454
Au  -0.000001   4.104084  -0.273454
