20
-1552.88654200
Au   4.676460   1.019687  -0.000000
Au  -4.676460  -1.019687  -0.000000
Au   0.314703   3.897970  -0.000000
Au  -0.314703  -3.897970   0.000000
Au   2.373794  -0.240896   0.000000
Au  -2.373794   0.240896  -0.000000
Au   0.057823   1.304690   0.000000
Au  -0.057823  -1.304690  -0.000000
Au  -2.452930  -2.386400  -0.000000
Au   2.452930   2.386400  -0.000000
Au   2.085271  -2.852411  -0.000000
Au  -2.085271   2.852411   0.000000
Au   1.378376   1.091962  -2.234270
Au  -1.378376  -1.091962  -2.234270
Au  -1.324704   1.537848  -2.199145
Au   1.324704  -1.537848  -2.199145
Au  -1.324704   1.537848   2.199145
Au   1.324704  -1.537848   2.199144
Au   1.378376   1.091962   2.234270
Au  -1.378376  -1.091962   2.234270
