20
-1550.42232900
Au  -1.805839  -0.000000  -0.000000
Au   1.805839   0.000000   0.000000
Au  -0.000000  -1.805839  -0.000000
Au   0.000000   1.805839  -0.000000
Au   4.383744   0.000000  -0.000000
Au  -4.383744   0.000000   0.000000
Au  -0.000000   4.383744  -0.000000
Au  -0.000000  -4.383744   0.000000
Au   2.508724   2.508724   0.000000
Au  -2.508724  -2.508724   0.000000
Au  -2.508724   2.508724   0.000000
Au   2.508724  -2.508724  -0.000000
Au  -2.489306  -5.110870  -0.000000
Au   2.489306   5.110870   0.000000
Au   5.110870  -2.489306   0.000000
Au  -5.110870   2.489306  -0.000000
Au   2.489306  -5.110870   0.000000
Au  -2.489306   5.110870   0.000000
Au  -5.110870  -2.489306  -0.000000
Au   5.110870   2.489306  -0.000000
