20
-1546.35680800
Au  -6.099110  -0.000000  -0.000000
Au   6.099110   0.000000  -0.000000
Au  -0.000000  -6.098774  -0.000000
Au   0.000000   6.098774  -0.000000
Au   1.812651  -0.000000   2.843998
Au  -1.812651   0.000000   2.843998
Au   0.000000   1.811926   2.843464
Au  -0.000000  -1.811926   2.843464
Au  -1.812651   0.000000  -2.843998
Au   1.812651  -0.000000  -2.843998
Au   0.000000   1.811926  -2.843464
Au  -0.000000  -1.811926  -2.843464
Au  -3.872224   0.000000  -1.305535
Au   3.872224   0.000000  -1.305535
Au   0.000000  -3.871838  -1.305476
Au  -0.000000   3.871838  -1.305476
Au   3.872224  -0.000000   1.305535
Au  -3.872224   0.000000   1.305535
Au   0.000000  -3.871838   1.305476
Au  -0.000000   3.871838   1.305476
