20
-1555.68791800
Au  -0.956091   0.837948   0.091079
Au   0.938536  -0.998356  -0.015186
Au  -1.907260  -1.809227   0.029630
Au   1.929387   1.782008  -0.042968
Au  -0.986553  -0.817011  -2.214946
Au   0.981748   0.921807  -2.312327
Au   1.501681  -1.651500  -2.642129
Au  -1.537331   1.788518  -2.353689
Au   0.924333   0.910737   2.216799
Au  -0.938588  -0.935529   2.286618
Au   1.591084  -1.647842   2.595868
Au  -1.618633   1.643577   2.528360
Au   3.207323  -0.108549   1.296232
Au  -3.298788  -0.026354   1.443590
Au  -0.048333   3.143814   1.106255
Au   0.016042  -3.224941   1.254452
Au  -3.209994   0.210098  -1.151270
Au   3.200406  -0.206213  -1.305031
Au   0.328204   3.377563  -1.466048
Au  -0.117173  -3.190549  -1.345288
