20
-1550.28910000
Au  -4.198422  -0.000000   0.000000
Au   4.198422   0.000000   0.000000
Au   0.000000  -4.198422   0.000000
Au   0.000000   4.198422   0.000000
Au  -1.981773  -0.000000   1.344248
Au   1.981773  -0.000000   1.344248
Au   0.000000  -1.981773   1.344248
Au  -0.000000   1.981773   1.344248
Au   1.981773  -0.000000  -1.344248
Au  -1.981773   0.000000  -1.344248
Au  -0.000000  -1.981773  -1.344248
Au  -0.000000   1.981773  -1.344248
Au   1.305886   1.305886   3.529090
Au  -1.305886  -1.305886   3.529090
Au  -1.305886   1.305886   3.529090
Au   1.305886  -1.305886   3.529090
Au  -1.305886   1.305886  -3.529090
Au   1.305886  -1.305886  -3.529090
Au   1.305886   1.305886  -3.529090
Au  -1.305886  -1.305886  -3.529090
