20
-1550.89696700
Au  -1.435726  -0.401887   0.000000
Au   1.435752   0.401900   0.000000
Au   0.580665  -2.054926   0.000000
Au  -0.580649   2.054873   0.000000
Au  -3.093490   0.002891  -2.105260
Au   3.093604  -0.002905  -2.105214
Au   0.053538  -4.282481  -1.291875
Au  -0.053595   4.282508  -1.291927
Au   3.093604  -0.002905   2.105214
Au  -3.093490   0.002891   2.105260
Au   0.053538  -4.282481   1.291875
Au  -0.053595   4.282508   1.291927
Au  -1.898600  -3.046949   0.000000
Au   1.898558   3.046999   0.000000
Au   3.271012  -1.528051   0.000000
Au  -3.271030   1.527958   0.000000
Au   2.333473  -3.985500   0.000000
Au  -2.333556   3.985426   0.000000
Au  -3.877576  -1.313554   0.000000
Au   3.877561   1.313685   0.000000
