20
-1552.58132800
Au   4.399697   0.337814   0.000000
Au  -4.399697  -0.337814   0.000000
Au   0.292199   3.604775   0.000000
Au  -0.292199  -3.604775   0.000000
Au   2.232089  -0.318871  -1.313986
Au  -2.232089   0.318871  -1.313986
Au   0.190320   1.336629  -1.322220
Au  -0.190320  -1.336629  -1.322220
Au  -2.232089   0.318871   1.313986
Au   2.232089  -0.318871   1.313986
Au   0.190320   1.336629   1.322220
Au  -0.190320  -1.336629   1.322220
Au   2.420448   2.042824   0.000000
Au  -2.420448  -2.042824   0.000000
Au  -2.226848   4.264304   0.000000
Au   2.226848  -4.264304   0.000000
Au  -3.734421   2.165885   0.000000
Au   3.734421  -2.165885   0.000000
Au   2.663864   4.660870   0.000000
Au  -2.663864  -4.660870   0.000000
