20
-1546.87434600
Au   5.214597   0.000402   0.000000
Au  -5.214597  -0.000402  -0.000000
Au   0.000476   5.593115   0.000000
Au  -0.000476  -5.593115  -0.000000
Au  -5.159892  -2.576165   0.000000
Au   5.159892   2.576165  -0.000000
Au   2.567655  -5.583501  -0.000000
Au  -2.567655   5.583501  -0.000000
Au   5.159413  -2.575197  -0.000000
Au  -5.159413   2.575197  -0.000000
Au  -2.568615  -5.583623  -0.000000
Au   2.568615   5.583623   0.000000
Au   1.309726  -3.308154  -0.000000
Au  -1.309726   3.308154  -0.000000
Au   2.927173   1.282017  -0.000000
Au  -2.927173  -1.282017   0.000000
Au  -1.310099  -3.308427  -0.000000
Au   1.310099   3.308427  -0.000000
Au  -2.926685   1.281265  -0.000000
Au   2.926685  -1.281265   0.000000
