20
-1548.49689200
Au  -1.818877   0.000000   0.000000
Au   1.818877  -0.000000   0.000000
Au   0.000000  -1.818877   0.000000
Au   0.000000   1.818877   0.000000
Au  -3.127010  -1.296634   1.879121
Au   3.127010   1.296634   1.879121
Au   1.296634  -3.127010   1.879121
Au  -1.296634   3.127010   1.879121
Au   3.127010  -1.296634  -1.879121
Au  -3.127010   1.296634  -1.879121
Au  -1.296634  -3.127010  -1.879121
Au   1.296634   3.127010  -1.879121
Au   3.127010   1.296634  -1.879121
Au  -3.127010  -1.296634  -1.879121
Au  -1.296634   3.127010  -1.879121
Au   1.296634  -3.127010  -1.879121
Au  -3.127010   1.296634   1.879121
Au   3.127010  -1.296634   1.879121
Au   1.296634   3.127010   1.879121
Au  -1.296634  -3.127010   1.879121
