20
-1553.73784300
Au  -1.806376  -1.806509  -0.000000
Au   1.806376   1.806509   0.000000
Au   4.055138  -4.059423   0.000000
Au  -4.055138   4.059423  -0.000000
Au   1.876167  -0.021431  -1.942985
Au  -1.876167   0.021431  -1.942985
Au  -0.021573   1.875388  -1.943077
Au   0.021573  -1.875388  -1.943077
Au  -1.876167   0.021431   1.942985
Au   1.876167  -0.021431   1.942985
Au  -0.021573   1.875388   1.943077
Au   0.021573  -1.875388   1.943077
Au   2.464398   2.464699  -2.423846
Au  -2.464398  -2.464699  -2.423846
Au  -2.487033   2.487281  -1.336820
Au   2.487033  -2.487281  -1.336820
Au  -2.487033   2.487281   1.336820
Au   2.487033  -2.487281   1.336820
Au   2.464398   2.464699   2.423846
Au  -2.464398  -2.464699   2.423846
