20
-1551.68883700
Au  -1.431468  -1.431446  -0.000005
Au   1.431460   1.431455   0.000001
Au   1.431454  -1.431474   0.000003
Au  -1.431464   1.431463  -0.000001
Au   2.842669   0.000016  -1.707631
Au  -2.842664  -0.000012  -1.707626
Au  -0.000030   2.842668  -1.707629
Au   0.000061  -2.842666  -1.707630
Au  -2.842664   0.000008   1.707628
Au   2.842667  -0.000004   1.707629
Au   0.000002   2.842668   1.707630
Au   0.000074  -2.842665   1.707631
Au  -2.519918  -2.519887   2.204568
Au   2.519887   2.519890   2.204561
Au   2.519858  -2.519896   2.204549
Au  -2.519896   2.519886   2.204554
Au   2.519864  -2.519904  -2.204551
Au  -2.519880   2.519899  -2.204553
Au  -2.519914  -2.519879  -2.204565
Au   2.519902   2.519880  -2.204562
