20
-1552.55784700
Au   3.825912   3.985032   0.000811
Au  -3.825912  -3.985032   0.000812
Au  -3.825909   3.984706  -0.000806
Au   3.825910  -3.984707  -0.000807
Au   2.239266   0.001441   2.033950
Au  -2.239267  -0.001442   2.033950
Au  -0.000849   1.321053   2.127509
Au   0.000851  -1.321054   2.127509
Au  -2.239397   0.001349  -2.033721
Au   2.239398  -0.001350  -2.033721
Au   0.000721   1.321111  -2.127568
Au  -0.000723  -1.321111  -2.127568
Au   2.171950   2.505622  -1.325576
Au  -2.171949  -2.505621  -1.325577
Au  -2.169443   2.509094  -1.328568
Au   2.169443  -2.509094  -1.328568
Au  -2.171923   2.505334   1.325431
Au   2.171922  -2.505333   1.325432
Au   2.169415   2.509348   1.328539
Au  -2.169414  -2.509347   1.328539
