20
-1554.12820400
Au   1.940880  -0.000000   1.331750
Au  -1.940881   0.000000   1.331750
Au  -0.000000   1.940881   1.331750
Au   0.000000  -1.940880   1.331750
Au  -3.174871  -0.000000  -1.145785
Au   3.174871   0.000000  -1.145785
Au  -0.000000  -3.174871  -1.145785
Au   0.000000   3.174871  -1.145785
Au   2.324729   2.324729   2.469434
Au  -2.324729  -2.324729   2.469434
Au  -2.324729   2.324729   2.469434
Au   2.324729  -2.324729   2.469434
Au   1.319341   1.319341  -2.506518
Au  -1.319341  -1.319341  -2.506518
Au  -1.319341   1.319341  -2.506518
Au   1.319341  -1.319341  -2.506518
Au  -2.218348  -2.218348  -0.148880
Au   2.218348   2.218348  -0.148880
Au   2.218347  -2.218348  -0.148880
Au  -2.218348   2.218348  -0.148880
