20
-1549.16187100
Au  -2.698305  -2.698305  -0.000002
Au   2.698305   2.698305  -0.000003
Au   2.698305  -2.698305  -0.000001
Au  -2.698305   2.698305  -0.000005
Au  -1.300583  -1.300584   1.732007
Au   1.300584   1.300584   1.732008
Au   1.300583  -1.300583   1.732007
Au  -1.300585   1.300585   1.732008
Au   1.300607  -1.300607  -1.732009
Au  -1.300606   1.300606  -1.732009
Au  -1.300607  -1.300606  -1.732009
Au   1.300606   1.300607  -1.732009
Au  -3.043718  -3.043718   2.525972
Au   3.043718   3.043718   2.525972
Au   3.043718  -3.043718   2.525971
Au  -3.043718   3.043718   2.525973
Au   3.043709  -3.043709  -2.525969
Au  -3.043709   3.043709  -2.525967
Au  -3.043709  -3.043709  -2.525968
Au   3.043709   3.043709  -2.525968
