20
-1551.04127100
Au   3.803602   3.803602   0.000000
Au  -3.803602  -3.803602   0.000000
Au  -3.803602   3.803602   0.000000
Au   3.803602  -3.803602   0.000000
Au   1.853291  -0.000000   1.879094
Au  -1.853291  -0.000000   1.879094
Au   0.000000   1.853291   1.879094
Au   0.000000  -1.853291   1.879094
Au  -1.853291   0.000000  -1.879094
Au   1.853291   0.000000  -1.879094
Au  -0.000000   1.853291  -1.879094
Au  -0.000000  -1.853291  -1.879094
Au  -3.139203  -1.292267   0.000000
Au   3.139203   1.292267   0.000000
Au   1.292267  -3.139203   0.000000
Au  -1.292267   3.139203   0.000000
Au   3.139203  -1.292267   0.000000
Au  -3.139203   1.292267   0.000000
Au  -1.292267  -3.139203   0.000000
Au   1.292267   3.139203   0.000000
