20
-1554.18218100
Au  -3.841023  -4.603988   0.000000
Au   3.841023   4.603988  -0.000000
Au   2.650009  -2.242987  -0.000000
Au  -2.650009   2.242987  -0.000000
Au  -6.708744  -0.991303   0.000000
Au   6.708744   0.991303  -0.000000
Au   0.618858  -3.892326  -0.000000
Au  -0.618858   3.892326  -0.000000
Au   4.670963  -0.610721  -0.000000
Au  -4.670963   0.610721  -0.000000
Au  -1.408892  -5.523760  -0.000000
Au   1.408892   5.523760  -0.000000
Au  -1.838707  -2.928870   0.000000
Au   1.838707   2.928870   0.000000
Au   2.237464   0.354330   0.000000
Au  -2.237464  -0.354330   0.000000
Au   0.200670  -1.306880   0.000000
Au  -0.200670   1.306880   0.000000
Au  -4.321122  -2.029781   0.000000
Au   4.321122   2.029781   0.000000
