20
-1552.86641500
Au  -1.972419  -0.000000  -1.332067
Au   1.972419   0.000000  -1.332067
Au   0.000000  -1.972419  -1.332067
Au   0.000000   1.972419  -1.332067
Au   1.971296   0.000000   1.331725
Au  -1.971296   0.000000   1.331725
Au   0.000000   1.971296   1.331725
Au   0.000000  -1.971296   1.331725
Au   1.315145   1.315145   3.549631
Au  -1.315145  -1.315145   3.549631
Au  -1.315145   1.315145   3.549631
Au   1.315145  -1.315145   3.549631
Au  -2.255634  -2.255634   0.000097
Au   2.255634   2.255634   0.000097
Au   2.255634  -2.255634   0.000097
Au  -2.255634   2.255634   0.000097
Au   1.315076   1.315076  -3.549386
Au  -1.315076  -1.315076  -3.549386
Au  -1.315076   1.315076  -3.549386
Au   1.315076  -1.315076  -3.549386
