20
-1551.51684600
Au  -3.892791  -3.892791   0.000000
Au   3.892791   3.892791   0.000000
Au   3.892791  -3.892791   0.000000
Au  -3.892791   3.892791   0.000000
Au  -1.304145  -1.304145   1.351904
Au   1.304145   1.304145   1.351904
Au   1.304145  -1.304145   1.351904
Au  -1.304145   1.304145   1.351904
Au   1.304145  -1.304145  -1.351904
Au  -1.304145   1.304145  -1.351904
Au  -1.304145  -1.304145  -1.351904
Au   1.304145   1.304145  -1.351904
Au   1.311139  -3.555262   0.000000
Au  -1.311139   3.555262   0.000000
Au   3.555262   1.311139   0.000000
Au  -3.555262  -1.311139   0.000000
Au  -1.311139  -3.555262   0.000000
Au   1.311139   3.555262   0.000000
Au  -3.555262   1.311139   0.000000
Au   3.555262  -1.311139   0.000000
