20
-1551.51684300
Au   3.893289   3.893289  -0.000000
Au  -3.893289  -3.893289  -0.000000
Au  -3.893289   3.893289  -0.000000
Au   3.893289  -3.893289  -0.000000
Au   1.304077   1.304077  -1.352264
Au  -1.304077  -1.304077  -1.352264
Au  -1.304077   1.304077  -1.352264
Au   1.304077  -1.304077  -1.352264
Au  -1.304077   1.304077   1.352264
Au   1.304077  -1.304077   1.352264
Au   1.304077   1.304077   1.352264
Au  -1.304077  -1.304077   1.352264
Au  -1.311524  -3.554705  -0.000000
Au   1.311524   3.554705  -0.000000
Au   3.554705  -1.311524  -0.000000
Au  -3.554705   1.311524  -0.000000
Au   1.311524  -3.554705  -0.000000
Au  -1.311524   3.554705  -0.000000
Au  -3.554705  -1.311524  -0.000000
Au   3.554705   1.311524  -0.000000
