20
-1548.49683400
Au  -1.286494  -1.286494   0.000000
Au   1.286494   1.286494   0.000000
Au   1.286494  -1.286494   0.000000
Au  -1.286494   1.286494   0.000000
Au  -3.127289  -1.294007   1.881271
Au   3.127289   1.294007   1.881271
Au   1.294007  -3.127289   1.881271
Au  -1.294007   3.127289   1.881271
Au   3.127289  -1.294007  -1.881271
Au  -3.127289   1.294007  -1.881271
Au  -1.294007  -3.127289  -1.881271
Au   1.294007   3.127289  -1.881271
Au   3.127289   1.294007  -1.881271
Au  -3.127289  -1.294007  -1.881271
Au  -1.294007   3.127289  -1.881271
Au   1.294007  -3.127289  -1.881271
Au  -3.127289   1.294007   1.881271
Au   3.127289  -1.294007   1.881271
Au   1.294007   3.127289   1.881271
Au  -1.294007  -3.127289   1.881271
