20
-1549.71881800
Au   0.000000   0.000000   4.609691
Au   0.000000  -0.000000   1.990714
Au  -0.000000  -2.591777   4.474397
Au  -0.000000   2.591777   4.474397
Au   0.000000   1.293454  -0.321665
Au   0.000000  -1.293454  -0.321665
Au   0.000000  -4.874443   3.229460
Au  -0.000000   4.874443   3.229460
Au  -0.000000  -4.254715  -6.286668
Au   0.000000   4.254715  -6.286668
Au   0.000000  -4.977610   0.654626
Au  -0.000000   4.977609   0.654626
Au   0.000000  -2.622242   1.899974
Au  -0.000000   2.622242   1.899974
Au  -0.000000   3.574951  -1.532748
Au   0.000000  -3.574951  -1.532748
Au   0.000000  -6.205797  -1.620236
Au  -0.000000   6.205797  -1.620236
Au  -0.000000  -4.834023  -3.797343
Au  -0.000000   4.834023  -3.797343
