20
-1551.45689800
Au  -0.000000   0.000000  -2.892482
Au  -0.000000   0.000000  -0.296885
Au  -0.000000   3.885468  -5.279557
Au  -0.000000  -3.885468  -5.279557
Au  -0.000000   1.291036  -5.246553
Au  -0.000000  -1.291036  -5.246553
Au   0.000000  -2.636860  -3.006744
Au   0.000000   2.636860  -3.006744
Au   0.000000   2.549593  -0.430271
Au  -0.000000  -2.549593  -0.430271
Au  -0.000000   3.885713   4.351052
Au  -0.000000  -3.885713   4.351052
Au  -0.000000   6.147626   3.079605
Au  -0.000000  -6.147626   3.079605
Au  -0.000000  -3.940572   1.742186
Au  -0.000000   3.940572   1.742186
Au  -0.000000   1.299486   4.486697
Au  -0.000000  -1.299486   4.486697
Au   0.000000  -1.322937   1.898268
Au   0.000000   1.322937   1.898268
