20
-1549.49573400
Au   0.000000   0.000024   4.530018
Au   0.000000   0.000013   1.841067
Au  -0.000001   2.299743  -2.805046
Au  -0.000001  -2.299719  -2.805055
Au  -0.000001  -2.581527   4.385866
Au   0.000000   2.581559   4.385855
Au  -0.000000   3.864789  -4.872972
Au  -0.000000  -3.864800  -4.872944
Au   0.000000   2.636206   1.774915
Au   0.000000  -2.636176   1.774912
Au   0.000000  -1.288353  -0.426004
Au   0.000000   1.288369  -0.426012
Au   0.000002   1.288490  -5.220838
Au   0.000002  -1.288511  -5.220866
Au  -0.000000   4.837496   3.130420
Au   0.000000  -4.837467   3.130421
Au   2.221688  -0.000079   3.213502
Au  -2.221687  -0.000080   3.213502
Au   1.286350   0.000011  -2.365372
Au  -1.286352   0.000011  -2.365370
