20
-1551.24813400
Au  -0.000000   0.000000  -0.066264
Au   0.000000  -0.000000   4.378059
Au   0.000000   2.639333   0.098375
Au   0.000000  -2.639333   0.098375
Au  -0.000000  -1.363864  -2.367200
Au  -0.000000   1.363864  -2.367200
Au   0.000000   2.129984   2.666320
Au   0.000000  -2.129984   2.666320
Au   0.000000  -3.949598  -2.137388
Au   0.000000   3.949598  -2.137388
Au  -3.424943  -0.000000   0.458335
Au   3.424943   0.000000   0.458335
Au  -1.289028  -0.000000  -4.240704
Au   1.289028  -0.000000  -4.240704
Au  -2.196428   0.000000  -1.809155
Au   2.196428  -0.000000  -1.809155
Au  -1.430718  -0.000000   2.177740
Au   1.430718  -0.000000   2.177740
Au  -3.920000  -0.000000   2.997779
Au   3.920000   0.000000   2.997779
