20
-1550.37993500
Au  -0.000000   0.000000   3.646710
Au  -0.000005  -0.000000   0.977452
Au  -0.000000   1.411390  -1.251174
Au  -0.000000  -1.411390  -1.251174
Au  -0.000000  -2.225401   2.335260
Au  -0.000000   2.225401   2.335260
Au  -0.000000   3.849735  -2.124533
Au  -0.000000  -3.849735  -2.124533
Au   4.630344   0.000000   0.005518
Au  -4.630346  -0.000000   0.005520
Au   4.802578   0.000000   2.578757
Au  -4.802580  -0.000000   2.578756
Au   1.310492   0.000000  -3.072293
Au  -1.310492   0.000000  -3.072293
Au   2.115243   0.000000  -0.545053
Au  -2.115239  -0.000000  -0.545052
Au  -3.875880   0.000000  -2.488645
Au   3.875880  -0.000000  -2.488643
Au  -2.238681  -0.000000   2.250078
Au   2.238687   0.000000   2.250080
