20
-1550.84310700
Au   0.000000   0.000000  -2.834432
Au   0.000000   0.000000   4.342491
Au  -4.818631  -0.000000   2.953341
Au   4.818631   0.000000   2.953341
Au  -5.549849  -0.000000  -3.365664
Au   5.549849  -0.000000  -3.365664
Au  -1.308001   0.000000   2.047911
Au   1.308001  -0.000000   2.047911
Au  -2.228551  -0.000000  -4.205090
Au   2.228551  -0.000000  -4.205090
Au  -3.405755   0.000000  -1.924035
Au   3.405755   0.000000  -1.924035
Au  -5.732525   0.000000  -0.745639
Au   5.732525   0.000000  -0.745639
Au  -2.601894  -0.000000   4.309380
Au   2.601894  -0.000000   4.309380
Au   1.274644   0.000000  -0.515972
Au  -1.274644   0.000000  -0.515972
Au   3.552887  -0.000000   0.691739
Au  -3.552887   0.000000   0.691739
