20
-1547.44910100
Au   0.000000  -0.000000   3.469134
Au  -0.000000  -0.000000  -1.049448
Au   0.000000  -2.561963  -1.047000
Au  -0.000000   2.561963  -1.047000
Au   0.000000   5.818671  -4.942332
Au  -0.000000  -5.818671  -4.942332
Au  -0.000000   1.301902   1.205635
Au  -0.000000  -1.301902   1.205635
Au  -0.000000   3.883224  -3.270019
Au   0.000000  -3.883224  -3.270019
Au  -0.000000  -1.292783  -3.304345
Au  -0.000000   1.292783  -3.304345
Au   0.000000   5.236406   2.469656
Au  -0.000000  -5.236406   2.469656
Au   1.337723   0.000000   5.698468
Au  -1.337723  -0.000000   5.698468
Au   1.311092  -3.553901   0.990048
Au  -1.311092   3.553901   0.990048
Au   1.311092   3.553901   0.990048
Au  -1.311092  -3.553901   0.990048
