20
-1550.87386500
Au   0.000000  -0.000000   4.404475
Au  -0.000001   0.000002  -1.726235
Au  -0.000009  -2.588903  -2.256312
Au   0.000009   2.588898  -2.256309
Au  -0.000003   1.635644   0.334574
Au   0.000003  -1.635647   0.334578
Au   0.000000  -2.150074   2.923703
Au  -0.000000   2.150074   2.923703
Au   0.000000  -4.462658  -4.033683
Au  -0.000000   4.462660  -4.033686
Au  -1.334637   0.000002   2.165436
Au   1.334637  -0.000000   2.165436
Au   2.209680  -0.000029  -0.300879
Au  -2.209679   0.000075  -0.300879
Au   3.896684  -0.000000   1.696349
Au  -3.896684   0.000000   1.696350
Au  -2.230852   2.508288  -0.934143
Au   2.230852  -2.508309  -0.934149
Au  -2.230845  -2.508361  -0.934169
Au   2.230844   2.508338  -0.934162
