20
-1551.71650900
Au  -0.000000   0.000000  -2.639916
Au  -0.000000  -0.000000   1.919727
Au   0.000000   3.308195   1.294196
Au   0.000000  -3.308195   1.294196
Au   0.000000  -2.243741  -1.075662
Au   0.000000   2.243741  -1.075662
Au  -0.000000  -2.203522   3.647626
Au  -0.000000   2.203522   3.647626
Au   2.657724  -0.000000  -2.622756
Au  -2.657724   0.000000  -2.622756
Au  -1.352564  -0.000000  -0.341012
Au   1.352564   0.000000  -0.341012
Au  -1.309988  -0.000000   4.215364
Au   1.309988  -0.000000   4.215364
Au   2.606793   0.000000   1.958820
Au  -2.606793   0.000000   1.958820
Au   1.306775   2.136775  -3.358241
Au  -1.306775  -2.136775  -3.358241
Au   1.306775  -2.136775  -3.358241
Au  -1.306775   2.136775  -3.358241
