20
-1553.27482700
Au   0.000000   0.000000  -3.395650
Au   0.000000  -0.000000   3.076910
Au  -0.000000   1.386819  -1.201102
Au  -0.000000  -1.386819  -1.201102
Au   0.000000   2.261656   1.271385
Au   0.000000  -2.261656   1.271385
Au   2.795459  -0.000000   2.913378
Au  -2.795459  -0.000000   2.913378
Au  -4.848749   0.000000  -1.974897
Au   4.848749  -0.000000  -1.974897
Au   3.870804  -0.000000   0.444221
Au  -3.870804   0.000000   0.444221
Au   2.232207   0.000000  -1.756077
Au  -2.232207   0.000000  -1.756077
Au  -1.292158   0.000000   0.782645
Au   1.292158  -0.000000   0.782645
Au  -2.323422   2.200146  -0.160092
Au   2.323422  -2.200146  -0.160092
Au  -2.323422  -2.200146  -0.160092
Au   2.323422   2.200146  -0.160092
