20
-1552.03232300
Au   0.000000   3.876530   0.787094
Au   0.000000  -3.876530   0.787094
Au  -0.000001  -1.280294  -3.861035
Au  -0.000001   1.280294  -3.861035
Au   0.000000   5.086246  -1.522119
Au   0.000000  -5.086246  -1.522119
Au  -0.000000  -1.284292   5.256452
Au  -0.000000   1.284292   5.256452
Au   0.000000   2.499561  -1.591994
Au   0.000000  -2.499561  -1.591994
Au   0.000000  -3.891408  -3.833501
Au   0.000000   3.891408  -3.833501
Au  -0.000000  -1.266532   0.636980
Au  -0.000000   1.266532   0.636980
Au   0.000000  -2.400983   2.942152
Au   0.000000   2.400983   2.942152
Au   1.274005   0.000000  -1.542041
Au  -1.274004   0.000000  -1.542043
Au   1.283658   0.000000   2.728013
Au  -1.283658   0.000000   2.728014
