20
-1552.07496900
Au  -0.000000   1.392396  -2.894448
Au  -0.000000  -1.392396  -2.894448
Au  -0.000000   1.317788  -5.474504
Au  -0.000000  -1.317788  -5.474504
Au  -0.000000   1.334542   2.533223
Au   0.000000  -1.334542   2.533223
Au  -0.000000   3.626454   1.033928
Au   0.000000  -3.626454   1.033928
Au  -0.000000   3.656733  -1.554396
Au   0.000000  -3.656733  -1.554396
Au   0.000000   1.347730  -0.281008
Au  -0.000000  -1.347730  -0.281008
Au  -0.000000   3.726216   3.608879
Au   0.000000  -3.726216   3.608879
Au   2.029175   0.000000   3.599629
Au  -2.029175  -0.000000   3.599629
Au  -1.859030  -0.000000   1.023071
Au   1.859030  -0.000000   1.023071
Au  -1.877589  -0.000000  -1.594374
Au   1.877589  -0.000000  -1.594374
