20
-1552.73569200
Au   0.000000  -1.339259   0.880627
Au  -0.000000   1.339259   0.880627
Au  -0.000000   3.588992   2.260997
Au   0.000000  -3.588992   2.260997
Au  -0.000000   3.665634  -0.330068
Au  -0.000000  -3.665634  -0.330068
Au  -0.000000  -1.351924  -4.373238
Au  -0.000000   1.351924  -4.373238
Au  -0.000000   1.388576  -1.743828
Au  -0.000000  -1.388576  -1.743828
Au   0.000000  -1.322086   3.543295
Au   0.000000   1.322086   3.543295
Au  -1.879395  -0.000000   2.256059
Au   1.879395  -0.000000   2.256059
Au   1.835120   0.000000  -3.072749
Au  -1.835120   0.000000  -3.072749
Au   1.995082   0.000000  -0.445809
Au  -1.995082   0.000000  -0.445809
Au  -4.154046  -0.000000   1.024715
Au   4.154046  -0.000000   1.024715
