20
-1552.48971600
Au   0.000000   1.906200  -2.445290
Au   0.000000  -1.906200  -2.445290
Au  -0.000000   1.307158   3.430258
Au  -0.000000  -1.307158   3.430258
Au   0.000000   1.819596  -5.063546
Au   0.000000  -1.819596  -5.063546
Au  -0.000000   3.629519   2.177644
Au  -0.000000  -3.629519   2.177644
Au  -0.000000   3.531994   4.772568
Au  -0.000000  -3.531994   4.772568
Au   0.000000  -1.986499   0.168063
Au   0.000000   1.986499   0.168063
Au  -1.320529  -0.000000   1.552614
Au   1.320529  -0.000000   1.552614
Au   1.316389   0.000000  -3.723890
Au  -1.316389   0.000000  -3.723890
Au  -1.304818   0.000000  -1.082261
Au   1.304818   0.000000  -1.082261
Au  -3.544748  -0.000000   0.213840
Au   3.544748  -0.000000   0.213840
