20
-1552.55609000
Au   0.000004   1.304537   1.052990
Au   0.000004  -1.304537   1.052990
Au   0.000000  -1.640271   3.669575
Au   0.000000   1.640271   3.669575
Au  -0.000000  -1.298369  -3.711841
Au  -0.000000   1.298369  -3.711841
Au  -0.000001   2.336903  -1.335113
Au  -0.000001  -2.336903  -1.335113
Au  -1.312231  -0.000000   5.242949
Au   1.312230   0.000000   5.242951
Au   2.242095  -0.000000  -4.148341
Au  -2.242095   0.000000  -4.148342
Au  -1.292997   0.000000  -1.660705
Au   1.292995  -0.000000  -1.660705
Au   2.988847  -0.000000   0.348611
Au  -2.988851   0.000000   0.348609
Au  -1.763239  -0.000000   2.647156
Au   1.763241   0.000000   2.647160
Au   3.870248  -0.000000  -2.105282
Au  -3.870250   0.000000  -2.105284
