20
-1551.86897000
Au  -0.000000  -1.927985   2.494912
Au  -0.000000   1.927985   2.494912
Au  -0.000000   1.962441  -0.148003
Au   0.000000  -1.962441  -0.148003
Au  -0.000000  -4.383374  -1.059959
Au   0.000000   4.383374  -1.059959
Au   3.595529   0.000000   2.416308
Au  -3.595529  -0.000000   2.416308
Au  -1.312889   0.000000   3.740352
Au   1.312889   0.000000   3.740352
Au  -1.300153   0.000000   1.128742
Au   1.300153  -0.000000   1.128742
Au  -3.595457  -0.000000  -0.194256
Au   3.595457   0.000000  -0.194256
Au  -1.301498   0.000000  -4.088789
Au   1.301498   0.000000  -4.088789
Au  -3.581681   0.000000  -2.797145
Au   3.581681   0.000000  -2.797145
Au   1.299276   0.000000  -1.492162
Au  -1.299276  -0.000000  -1.492162
