20
-1553.54672600
Au  -0.000000   1.844487  -3.421168
Au  -0.000000  -1.844487  -3.421168
Au  -0.000000  -1.906343  -0.803351
Au  -0.000000   1.906343  -0.803351
Au   0.000000  -1.866694   1.833016
Au   0.000000   1.866694   1.833016
Au   1.337447  -0.000000   0.510912
Au  -1.337447   0.000000   0.510912
Au   3.602347  -0.000000   4.432419
Au  -3.602347   0.000000   4.432419
Au   3.672022  -0.000000  -0.733677
Au  -3.672022  -0.000000  -0.733677
Au  -1.318039   0.000000   3.193744
Au   1.318039  -0.000000   3.193744
Au  -1.327305   0.000000  -4.743633
Au   1.327305   0.000000  -4.743633
Au   3.638774  -0.000000   1.851747
Au  -3.638774  -0.000000   1.851747
Au   1.419470   0.000000  -2.120009
Au  -1.419470   0.000000  -2.120009
