20
-1551.35765500
Au   1.314616  -0.000000   0.524376
Au  -1.314616  -0.000000   0.524376
Au  -3.559181  -0.000000   1.821115
Au   3.559181  -0.000000   1.821115
Au   3.565059  -0.000000  -0.759951
Au  -3.565059   0.000000  -0.759951
Au  -1.297298  -0.000000   3.152896
Au   1.297298   0.000000   3.152896
Au   3.557264   0.000000  -3.422034
Au  -3.557264   0.000000  -3.422034
Au   1.303389   0.000000  -2.077130
Au  -1.303389   0.000000  -2.077130
Au  -5.787865   0.000000   3.126996
Au   5.787865  -0.000000   3.126996
Au   1.300776   0.000000  -4.717893
Au  -1.300776   0.000000  -4.717893
Au   3.549559   0.000000   4.443707
Au  -3.549559  -0.000000   4.443707
Au   5.781282  -0.000000  -2.092081
Au  -5.781282  -0.000000  -2.092081
