20
-1553.71393300
Au   0.000000  -0.006880   0.890474
Au   0.000000   0.005214  -1.806174
Au   0.000001   2.701067  -1.837321
Au  -0.000001  -2.682515  -1.819939
Au  -0.000002   1.306829   3.300563
Au   0.000002  -1.312072   3.306758
Au  -0.000000  -4.868885  -0.400587
Au   0.000000   4.869006  -0.389762
Au  -0.000001  -1.308375  -4.064278
Au   0.000001   1.309158  -4.069470
Au  -0.000001   2.598940   0.888033
Au   0.000001  -2.610645   0.897687
Au   1.962135  -1.325177  -0.649399
Au  -1.959387   1.341814  -0.658202
Au   1.959387   1.341813  -0.658200
Au  -1.962135  -1.325176  -0.649397
Au   2.192250  -1.328709   1.934298
Au  -2.191209   1.311652   1.925307
Au   2.191206   1.311652   1.925310
Au  -2.192247  -1.328709   1.934301
