20
-1551.21128700
Au   0.000000   5.812883   1.552961
Au  -0.000000  -5.812883   1.552961
Au  -0.000000  -3.533251   2.757811
Au   0.000000   3.533251   2.757811
Au   0.000000  -1.332399  -1.138984
Au   0.000000   1.332399  -1.138984
Au   0.000000   1.287365   1.446171
Au  -0.000000  -1.287365   1.446171
Au   0.000000  -3.601681  -2.542546
Au   0.000000   3.601681  -2.542546
Au  -0.000000  -1.299171   4.045012
Au  -0.000000   1.299171   4.045012
Au  -0.000000   1.297344  -3.750371
Au  -0.000000  -1.297344  -3.750371
Au   0.000000   3.659850   0.096818
Au   0.000000  -3.659850   0.096818
Au   2.137411   2.891126  -1.233437
Au  -2.137411  -2.891126  -1.233437
Au   2.137411  -2.891126  -1.233437
Au  -2.137411   2.891126  -1.233437
