20
-1551.66281900
Au   0.000000   0.000000  -3.785301
Au   0.000000   0.000000  -1.228940
Au   0.000000   1.292746   1.025181
Au   0.000000  -1.292746   1.025181
Au   0.000000  -3.792749   0.172043
Au  -0.000000   3.792749   0.172043
Au  -0.000000  -2.929424  -2.272726
Au  -0.000000   2.929424  -2.272726
Au   0.000000   1.299573   3.663789
Au   0.000000  -1.299573   3.663789
Au  -2.271495  -0.000000  -0.029196
Au   2.271495  -0.000000  -0.029196
Au  -2.005049  -1.291014  -2.365550
Au   2.005049   1.291014  -2.365550
Au  -2.005049   1.291014  -2.365550
Au   2.005049  -1.291014  -2.365550
Au   1.321301  -3.143992   2.339565
Au  -1.321301   3.143992   2.339565
Au   1.321301   3.143992   2.339565
Au  -1.321301  -3.143992   2.339565
