20
-1553.20984500
Au  -0.000000   0.000000   2.080009
Au  -0.000000   0.000000  -2.676180
Au  -0.000000   2.629976   1.912434
Au  -0.000000  -2.629976   1.912434
Au  -0.000000  -1.298010  -0.348120
Au  -0.000000   1.298010  -0.348120
Au   0.000000   3.903902  -0.380388
Au   0.000000  -3.903902  -0.380388
Au  -0.000000   2.610478  -2.646813
Au  -0.000000  -2.610478  -2.646813
Au   2.496724   0.000000   3.220509
Au  -2.496724   0.000000   3.220509
Au  -2.212180   1.322595  -1.725706
Au   2.212180  -1.322595  -1.725706
Au  -2.212180  -1.322595  -1.725706
Au   2.212180   1.322595  -1.725706
Au   2.247952   1.340363   0.995937
Au  -2.247952  -1.340363   0.995937
Au   2.247952  -1.340363   0.995937
Au  -2.247952   1.340363   0.995937
