20
-1550.96174200
Au  -0.000000  -0.000000   2.276809
Au  -0.000001   0.000000  -0.379050
Au  -0.000000   3.909158  -2.707757
Au  -0.000000  -3.909158  -2.707757
Au  -0.000000   1.320402  -2.708102
Au  -0.000000  -1.320402  -2.708102
Au   2.620296  -0.000000   2.385210
Au  -2.620295  -0.000000   2.385210
Au  -1.312115  -0.000000  -4.585796
Au   1.312115  -0.000000  -4.585796
Au   2.191892   0.000000  -2.099947
Au  -2.191892   0.000000  -2.099947
Au  -1.296011  -1.307750   4.215883
Au   1.296011   1.307750   4.215883
Au  -1.296011   1.307750   4.215883
Au   1.296011  -1.307750   4.215883
Au  -2.185668  -1.307641   0.167873
Au   2.185668   1.307641   0.167873
Au  -2.185668   1.307641   0.167873
Au   2.185668  -1.307641   0.167873
