20
-1553.34538800
Au   0.000014   0.000000  -3.134744
Au   0.000010  -0.000000  -5.753347
Au  -0.000005  -3.310793   0.889937
Au  -0.000005   3.310793   0.889937
Au   0.000002  -1.692729  -1.166347
Au   0.000002   1.692729  -1.166347
Au  -2.062845   0.000000  -1.563352
Au   2.062855  -0.000000  -1.563349
Au   1.471322   0.000000   3.011982
Au  -1.471335  -0.000000   3.011977
Au   2.256685   0.000000  -4.325430
Au  -2.256664  -0.000000  -4.325432
Au  -1.309220   2.603652   3.048837
Au   1.309207  -2.603653   3.048837
Au  -1.309220  -2.603652   3.048837
Au   1.309207   2.603653   3.048837
Au   1.777838  -1.335867   0.749795
Au  -1.777843   1.335865   0.749789
Au   1.777839   1.335867   0.749794
Au  -1.777844  -1.335865   0.749789
