20
-1554.03536500
Au  -0.000000  -0.000000  -4.630730
Au   0.000000   0.000000   2.563118
Au   0.000000  -2.045582  -0.910153
Au   0.000000   2.045582  -0.910153
Au  -2.600989  -0.000000   2.506668
Au   2.600989  -0.000000   2.506668
Au   1.336654  -0.000000  -2.364785
Au  -1.336654   0.000000  -2.364785
Au  -3.909903   0.000000   0.214055
Au   3.909903  -0.000000   0.214055
Au   1.290754  -0.000000   0.226728
Au  -1.290754  -0.000000   0.226728
Au  -1.316411  -2.255452   1.549194
Au   1.316411   2.255452   1.549194
Au  -1.316411   2.255452   1.549194
Au   1.316411  -2.255452   1.549194
Au   2.603191   2.022619  -0.868547
Au  -2.603191  -2.022619  -0.868547
Au   2.603191  -2.022619  -0.868547
Au  -2.603191   2.022619  -0.868547
