20
-1555.72196500
Au   3.309199  -0.000017   0.840698
Au  -3.309199   0.000017   0.840698
Au  -0.000040   3.227725   0.708415
Au   0.000040  -3.227725   0.708415
Au   2.263905  -0.000056  -1.603219
Au  -2.263905   0.000056  -1.603219
Au   0.000030   1.332216  -1.104714
Au  -0.000030  -1.332216  -1.104714
Au  -1.315231  -1.309599   1.943936
Au   1.315231   1.309599   1.943936
Au   1.316634  -1.311112   1.944552
Au  -1.316634   1.311112   1.944552
Au  -4.523222   1.298221  -1.103401
Au   4.523222  -1.298221  -1.103401
Au  -2.300474  -2.368331  -0.261115
Au   2.300474   2.368331  -0.261115
Au  -4.523085  -1.298287  -1.103492
Au   4.523085   1.298287  -1.103492
Au  -2.300525   2.368596  -0.261660
Au   2.300525  -2.368596  -0.261660
