20
-1551.94649200
Au  -0.000000  -0.000000   4.932115
Au  -0.000000   0.000000  -4.931699
Au   1.338343  -0.000000  -2.700643
Au  -1.338343   0.000000  -2.700643
Au  -3.548237   0.000000  -1.307033
Au   3.548237  -0.000000  -1.307033
Au  -1.297253  -0.000000  -0.000141
Au   1.297253  -0.000000  -0.000141
Au   1.338029   0.000000   2.700889
Au  -1.338029  -0.000000   2.700889
Au  -3.547755  -0.000000   1.307050
Au   3.547755   0.000000   1.307050
Au  -1.340605   2.260621   1.321457
Au   1.340605  -2.260621   1.321457
Au  -1.340605  -2.260621   1.321457
Au   1.340605   2.260621   1.321457
Au   1.340504  -2.260856  -1.321621
Au  -1.340504   2.260856  -1.321621
Au   1.340504   2.260856  -1.321621
Au  -1.340504  -2.260856  -1.321621
