20
-1552.91770600
Au   0.000000  -0.000000  -0.353517
Au   0.000000   0.000000   4.153548
Au  -1.350848   0.000000   1.938250
Au   1.350848   0.000000   1.938250
Au   3.906659   0.000000  -2.708149
Au  -3.906659   0.000000  -2.708149
Au  -3.952638  -0.000000   1.961697
Au   3.952638  -0.000000   1.961697
Au  -1.298441   0.000000  -2.691444
Au   1.298441  -0.000000  -2.691444
Au  -2.701635  -0.000000  -0.399359
Au   2.701635  -0.000000  -0.399359
Au   2.755614  -2.156238   1.098401
Au  -2.755614   2.156238   1.098401
Au   2.755614   2.156238   1.098401
Au  -2.755614  -2.156238   1.098401
Au  -1.311641  -2.173726  -1.098906
Au   1.311641   2.173726  -1.098906
Au  -1.311641   2.173726  -1.098906
Au   1.311641  -2.173726  -1.098906
