20
-1553.12580100
Au  -0.000000   1.834349  -1.310227
Au   0.000000  -1.834349  -1.310227
Au  -0.000000   1.905735  -3.924973
Au   0.000000  -1.905735  -3.924973
Au  -0.000000  -1.618053   1.309849
Au   0.000000   1.618053   1.309849
Au   0.000000   1.351870   3.928477
Au  -0.000000  -1.351870   3.928477
Au  -0.000000   4.040157   0.156637
Au   0.000000  -4.040157   0.156637
Au  -1.343415  -0.000000  -2.740080
Au   1.343415   0.000000  -2.740080
Au   1.764863  -0.000000   2.518359
Au  -1.764863   0.000000   2.518359
Au  -1.754055  -0.000000  -0.127149
Au   1.754055   0.000000  -0.127149
Au  -2.149850  -2.578167   0.094553
Au   2.149850   2.578167   0.094553
Au  -2.149850   2.578167   0.094553
Au   2.149850  -2.578167   0.094553
