20
-1553.46115400
Au  -0.000000  -1.277575  -0.185189
Au  -0.000000   1.277575  -0.185189
Au  -0.000000  -3.828157  -0.582986
Au  -0.000000   3.828157  -0.582986
Au   0.000000   2.251915  -2.684818
Au  -0.000000  -2.251915  -2.684818
Au   0.000000   2.246894   2.273118
Au   0.000000  -2.246894   2.273118
Au   2.896115  -0.000000  -0.265528
Au  -2.896115  -0.000000  -0.265528
Au   1.312822  -0.000000  -2.320370
Au  -1.312822  -0.000000  -2.320370
Au   1.314206   0.000000   1.820979
Au  -1.314206   0.000000   1.820979
Au  -1.299507  -0.000000   4.416295
Au   1.299507  -0.000000   4.416295
Au   2.177628   2.349287  -1.235750
Au  -2.177628  -2.349287  -1.235750
Au   2.177628  -2.349287  -1.235750
Au  -2.177628   2.349287  -1.235750
