20
-1552.35131600
Au   0.000002  -2.194661   3.368743
Au   0.000002   2.194666   3.368740
Au  -0.000001   3.237991  -0.924153
Au  -0.000001  -3.237999  -0.924136
Au  -0.000003   3.997498   1.538323
Au  -0.000003  -3.997498   1.538313
Au  -0.000002   1.308589   0.887164
Au  -0.000002  -1.308590   0.887164
Au  -1.323040  -0.000001   3.781128
Au   1.323043  -0.000001   3.781132
Au  -2.793640  -0.000002  -3.238135
Au   2.793637  -0.000002  -3.238138
Au  -2.248693  -0.000000   1.355679
Au   2.248692  -0.000000   1.355686
Au  -1.309819   0.000009  -1.085432
Au   1.309785   0.000009  -1.085462
Au   1.337294   2.106524  -2.841655
Au  -1.337290  -2.106513  -2.841653
Au   1.337311  -2.106528  -2.841668
Au  -1.337272   2.106508  -2.841640
