20
-1551.91442700
Au   0.000000  -2.166247  -2.598280
Au  -0.000000   2.166247  -2.598280
Au  -0.000000   2.008296   1.990079
Au   0.000000  -2.008296   1.990079
Au   3.753584   0.000000  -2.959315
Au  -3.753584   0.000000  -2.959315
Au  -1.342883  -0.000000  -1.930289
Au   1.342883   0.000000  -1.930289
Au   3.578856  -0.000000  -0.389288
Au  -3.578856   0.000000  -0.389288
Au  -1.293280  -0.000000   3.482375
Au   1.293280   0.000000   3.482375
Au  -1.320352   0.000000   0.883677
Au   1.320352   0.000000   0.883677
Au   3.600740  -0.000000   2.218171
Au  -3.600740  -0.000000   2.218171
Au   1.337042   2.308801  -0.348565
Au  -1.337042  -2.308801  -0.348565
Au   1.337042  -2.308801  -0.348565
Au  -1.337042   2.308801  -0.348565
