20
-1551.87462100
Au  -0.000000  -5.766780  -0.000490
Au  -0.000000   5.766780  -0.000490
Au  -0.000000  -1.321063   2.675210
Au   0.000000   1.321063   2.675210
Au   0.000000   3.564298  -1.348216
Au  -0.000000  -3.564298  -1.348216
Au  -0.000000   3.564507   1.347735
Au   0.000000  -3.564507   1.347735
Au   0.000000   1.320738  -2.675071
Au  -0.000000  -1.320738  -2.675071
Au   0.000000   1.329657   0.000137
Au  -0.000000  -1.329657   0.000137
Au  -2.267655   1.334474   1.324176
Au   2.267655  -1.334474   1.324176
Au  -2.267655  -1.334474   1.324176
Au   2.267655   1.334474   1.324176
Au  -2.267724   1.334382  -1.323828
Au   2.267724  -1.334382  -1.323828
Au  -2.267724  -1.334382  -1.323828
Au   2.267724   1.334382  -1.323828
