20
-1551.39256700
Au  -0.000000  -0.000000   2.620847
Au   0.000000   0.000000  -2.045299
Au   0.000000   1.355037   0.267759
Au   0.000000  -1.355037   0.267759
Au  -0.000000  -2.675627  -2.032127
Au  -0.000000   2.675627  -2.032127
Au   2.155570   0.000000   4.039109
Au  -2.155570   0.000000   4.039109
Au   2.172537  -1.333228   1.801232
Au  -2.172537   1.333228   1.801232
Au   2.172537   1.333228   1.801232
Au  -2.172537  -1.333228   1.801232
Au   2.193328  -3.900006  -2.706793
Au  -2.193328   3.900006  -2.706793
Au   2.193328   3.900006  -2.706793
Au  -2.193328  -3.900006  -2.706793
Au  -2.146218  -2.764267  -0.375696
Au   2.146218   2.764267  -0.375696
Au  -2.146218   2.764267  -0.375696
Au   2.146218  -2.764267  -0.375696
