20
-1554.41704600
Au  -0.000045  -0.000000   0.170902
Au  -0.000017   0.000000  -2.630875
Au   0.000002  -1.356545   2.558925
Au   0.000002   1.356545   2.558925
Au  -2.205748  -0.000000   2.358812
Au   2.205760   0.000000   2.358799
Au   3.449127   0.000000   0.098223
Au  -3.449124  -0.000000   0.098211
Au   1.841807  -2.122173   0.853536
Au  -1.841805   2.122181   0.853537
Au   1.841807   2.122173   0.853536
Au  -1.841805  -2.122181   0.853537
Au  -2.007413   1.315256  -1.638481
Au   2.007434  -1.315273  -1.638480
Au  -2.007413  -1.315256  -1.638481
Au   2.007434   1.315273  -1.638480
Au   1.321677  -3.784192  -1.108038
Au  -1.321678   3.784197  -1.108035
Au   1.321677   3.784192  -1.108038
Au  -1.321678  -3.784197  -1.108035
