20
-1551.76926100
Au  -0.000000  -1.401142  -2.938724
Au  -0.000000   1.401142  -2.938724
Au   0.000000   3.024761   4.202535
Au   0.000000  -3.024761   4.202535
Au   0.000000  -1.369803  -0.266656
Au   0.000000   1.369803  -0.266656
Au   0.000000  -3.238678   1.592292
Au   0.000000   3.238678   1.592292
Au  -0.000000  -1.310695  -5.522301
Au  -0.000000   1.310695  -5.522301
Au   2.113369   0.000000   0.646396
Au  -2.113369   0.000000   0.646396
Au  -2.256781   1.301700  -1.629260
Au   2.256781  -1.301700  -1.629260
Au  -2.256781  -1.301700  -1.629260
Au   2.256781   1.301700  -1.629260
Au  -1.330674   1.301992   2.772489
Au   1.330674  -1.301992   2.772489
Au  -1.330674  -1.301992   2.772489
Au   1.330674   1.301992   2.772489
