20
-1553.93058400
Au   0.000000  -2.027151   1.067293
Au   0.000000   2.027151   1.067293
Au  -1.319532  -0.000000  -2.747853
Au   1.319532  -0.000000  -2.747853
Au  -1.315260   0.000000   2.541148
Au   1.315260  -0.000000   2.541148
Au  -3.746184  -0.000000   1.434404
Au   3.746184   0.000000   1.434404
Au   1.305660  -0.000000  -0.047907
Au  -1.305660   0.000000  -0.047907
Au   3.570485   0.000000  -1.287269
Au  -3.570485   0.000000  -1.287269
Au   1.306162   2.264548  -1.383527
Au  -1.306162  -2.264548  -1.383527
Au   1.306162  -2.264548  -1.383527
Au  -1.306162   2.264548  -1.383527
Au   2.582597  -2.236755   0.903618
Au  -2.582597   2.236755   0.903618
Au   2.582597   2.236755   0.903618
Au  -2.582597  -2.236755   0.903618
