20
-1551.84426300
Au   5.626568  -0.000000  -0.194892
Au  -5.626568  -0.000000  -0.194892
Au  -3.353280   0.000000  -1.536342
Au   3.353280  -0.000000  -1.536342
Au   5.613584   0.000000  -2.793709
Au  -5.613584  -0.000000  -2.793709
Au   1.291120   0.000000  -3.104779
Au  -1.291120   0.000000  -3.104779
Au   1.330111  -0.000000   0.125156
Au  -1.330111   0.000000   0.125156
Au   2.312942  -0.000000   2.640781
Au  -2.312942   0.000000   2.640781
Au  -1.299588   2.190591   1.675331
Au   1.299588  -2.190591   1.675331
Au  -1.299588  -2.190591   1.675331
Au   1.299588   2.190591   1.675331
Au  -3.581809  -1.319316   0.756561
Au   3.581809   1.319316   0.756561
Au  -3.581809   1.319316   0.756561
Au   3.581809  -1.319316   0.756561
