20
-1553.83533600
Au  -0.011779  -0.441633   0.699646
Au   0.010551   0.952572  -3.556377
Au   0.030333  -1.639438   3.124130
Au  -0.049684   0.952675   2.938992
Au   1.322891  -0.412737  -1.679433
Au  -1.346093   2.303602  -1.780040
Au   1.290510   2.235180  -1.688371
Au  -1.298298  -0.356907  -1.678287
Au  -3.053322   3.537331  -0.259953
Au   3.665400  -3.855841   0.924352
Au  -3.676167  -3.802011   0.974981
Au   3.029513   3.513898  -0.235454
Au  -3.154748  -1.607781  -0.306371
Au   3.304250   0.947618  -0.559012
Au  -3.306695   0.969369  -0.599293
Au   3.222020  -1.638770  -0.344192
Au   1.313327   1.928903   0.924633
Au  -1.291673  -2.777230   1.141898
Au   1.317507  -2.748736   1.099203
Au  -1.317842   1.939937   0.858947
