20
-1554.99003200
Au   2.647782  -1.520243  -1.130755
Au  -2.647782   1.520243  -1.130755
Au  -0.178805   2.664560  -0.717462
Au   0.178805  -2.664560  -0.717462
Au   1.738785   0.985096  -1.510830
Au  -1.738785  -0.985096  -1.510830
Au  -0.646455   1.121696  -2.771532
Au   0.646456  -1.121695  -2.771532
Au   0.961574   1.152605   1.203453
Au  -0.961574  -1.152605   1.203453
Au  -1.649268   1.379515   1.384220
Au   1.649268  -1.379515   1.384220
Au   4.180892  -1.952456   0.948377
Au  -4.180892   1.952456   0.948377
Au  -0.077095   3.543910   1.723493
Au   0.077094  -3.543910   1.723493
Au   3.413487   0.495656   0.465857
Au  -3.413487  -0.495656   0.465857
Au   2.343733  -3.716248   0.405178
Au  -2.343733   3.716248   0.405178
