20
-1550.95582000
Au   0.000000  -1.401862  -2.450599
Au  -0.000000   1.401862  -2.450599
Au   0.000000   3.447153   1.719799
Au  -0.000000  -3.447153   1.719799
Au   0.000000   3.600305  -0.912879
Au  -0.000000  -3.600305  -0.912879
Au  -0.000000  -1.289871   0.244272
Au   0.000000   1.289871   0.244272
Au  -2.700700   1.315934   0.366385
Au   2.700700  -1.315934   0.366385
Au  -2.700700  -1.315934   0.366385
Au   2.700700   1.315934   0.366385
Au  -2.605265   1.302283  -2.234214
Au   2.605265  -1.302283  -2.234214
Au  -2.605265  -1.302283  -2.234214
Au   2.605265   1.302283  -2.234214
Au  -1.299308  -1.308818   2.567532
Au   1.299308   1.308818   2.567532
Au  -1.299308   1.308818   2.567532
Au   1.299308  -1.308818   2.567532
