20
-1554.44215400
Au   0.000000   1.310943   0.165868
Au   0.000000  -1.310942   0.165868
Au  -0.000000   3.418828  -1.422627
Au  -0.000000  -3.418828  -1.422627
Au   1.315109   0.000000   2.130469
Au  -1.315109   0.000000   2.130469
Au   2.430953   0.000000  -0.252171
Au  -2.430953   0.000000  -0.252171
Au   1.305109  -2.680673   2.207600
Au  -1.305109   2.680673   2.207600
Au   1.305109   2.680673   2.207600
Au  -1.305109  -2.680673   2.207600
Au   1.313359  -1.299351  -2.281690
Au  -1.313359   1.299351  -2.281690
Au   1.313359   1.299351  -2.281690
Au  -1.313359  -1.299351  -2.281690
Au   2.259392   2.639279  -0.236680
Au  -2.259392  -2.639279  -0.236680
Au   2.259392  -2.639279  -0.236680
Au  -2.259392   2.639279  -0.236680
