20
-1553.66780500
Au  -0.000000   2.194696   1.652757
Au  -0.000000  -2.194696   1.652757
Au  -0.000000  -1.318974   4.161764
Au   0.000000   1.318974   4.161764
Au  -3.540517   0.000000  -1.424110
Au   3.540517   0.000000  -1.424110
Au  -1.363461   0.000000   2.372063
Au   1.363461   0.000000   2.372063
Au   3.461756   2.624082  -1.609939
Au  -3.461756  -2.624082  -1.609939
Au   3.461756  -2.624082  -1.609939
Au  -3.461756   2.624082  -1.609939
Au  -2.225512   1.421207   0.363267
Au   2.225512  -1.421207   0.363267
Au  -2.225512  -1.421207   0.363267
Au   2.225512   1.421207   0.363267
Au   1.301499  -1.301243  -2.134565
Au  -1.301499   1.301243  -2.134565
Au   1.301499   1.301243  -2.134565
Au  -1.301499  -1.301243  -2.134565
