20
-1552.80521100
Au   0.000000  -1.339365  -1.114777
Au   0.000000   1.339365  -1.114777
Au   1.299060  -0.000000  -3.085485
Au  -1.299060   0.000000  -3.085485
Au   3.614936   0.000000   1.517930
Au  -3.614936  -0.000000   1.517930
Au   2.412398   0.000000  -0.766028
Au  -2.412398  -0.000000  -0.766028
Au   2.339232  -2.601253  -0.778272
Au  -2.339232   2.601253  -0.778272
Au   2.339232   2.601253  -0.778272
Au  -2.339232  -2.601253  -0.778272
Au   1.302335   3.958519   1.176383
Au  -1.302335  -3.958519   1.176383
Au   1.302335  -3.958519   1.176383
Au  -1.302335   3.958519   1.176383
Au   1.333086   1.318011   1.326068
Au  -1.333086  -1.318011   1.326068
Au   1.333086  -1.318011   1.326068
Au  -1.333086   1.318011   1.326068
