20
-1552.06990200
Au   0.000001   3.570357   0.102929
Au  -0.000001  -3.570357   0.102929
Au  -0.000000  -1.413665   2.088185
Au   0.000000   1.413665   2.088185
Au  -1.994349   3.086296   1.718792
Au   1.994349  -3.086296   1.718792
Au  -1.994349  -3.086296   1.718791
Au   1.994349   3.086296   1.718791
Au  -3.411737   1.311548  -1.812618
Au   3.411737  -1.311548  -1.812618
Au  -3.411737  -1.311548  -1.812618
Au   3.411737   1.311548  -1.812618
Au   1.334960  -1.299462  -0.182103
Au  -1.334960   1.299462  -0.182103
Au   1.334960   1.299462  -0.182103
Au  -1.334960  -1.299462  -0.182103
Au  -2.466862   3.555767  -0.819628
Au   2.466862  -3.555767  -0.819628
Au  -2.466862  -3.555767  -0.819628
Au   2.466862   3.555767  -0.819628
