20
-1548.39687100
Au   2.936275   2.936275   1.436747
Au  -2.936275  -2.936275   1.436747
Au  -2.936275   2.936275   1.436747
Au   2.936275  -2.936275   1.436747
Au   1.300895   1.300895   2.580282
Au  -1.300895  -1.300895   2.580282
Au  -1.300895   1.300895   2.580282
Au   1.300895  -1.300895   2.580282
Au  -1.378856  -1.378856  -0.029339
Au   1.378856   1.378856  -0.029339
Au   1.378856  -1.378856  -0.029339
Au  -1.378856   1.378856  -0.029339
Au   1.291566  -3.119416  -1.993845
Au  -1.291566   3.119416  -1.993845
Au   3.119416   1.291566  -1.993845
Au  -3.119416  -1.291566  -1.993845
Au   1.291566   3.119416  -1.993845
Au  -1.291566  -3.119416  -1.993845
Au   3.119416  -1.291566  -1.993845
Au  -3.119416   1.291566  -1.993845
