20
-1552.56552000
Au   0.000000  -1.373027   1.784082
Au  -0.000000   1.373027   1.784082
Au  -2.243542   0.000002   1.549739
Au   2.243542  -0.000003   1.549739
Au  -1.319027  -1.375081  -0.623262
Au   1.319027   1.375081  -0.623262
Au  -1.319032   1.375086  -0.623262
Au   1.319032  -1.375086  -0.623262
Au   2.310414   2.587944   1.595150
Au  -2.310414  -2.587944   1.595150
Au   2.310413  -2.587941   1.595150
Au  -2.310413   2.587941   1.595150
Au   3.889745  -1.326006  -0.064849
Au  -3.889745   1.326006  -0.064849
Au   3.889745   1.326006  -0.064849
Au  -3.889745  -1.326006  -0.064849
Au   3.155086   1.323123  -2.573949
Au  -3.155086  -1.323123  -2.573949
Au   3.155086  -1.323123  -2.573949
Au  -3.155086   1.323123  -2.573949
