20
-1555.59465800
Au   0.000003   3.670074   0.862321
Au  -0.000006  -3.670074   0.862321
Au  -1.319791   0.000001  -1.329848
Au   1.319842  -0.000001  -1.329895
Au   1.301735   1.313756   1.102430
Au  -1.301764  -1.313777   1.102450
Au   1.301713  -1.313750   1.102449
Au  -1.301741   1.313771   1.102471
Au  -3.458654  -1.325673  -0.397891
Au   3.458656   1.325672  -0.397891
Au  -3.458645   1.325655  -0.397852
Au   3.458646  -1.325654  -0.397852
Au   2.645051   3.534370   0.784922
Au  -2.645046  -3.534363   0.784920
Au   2.645042  -3.534356   0.784952
Au  -2.645037   3.534350   0.784950
Au  -1.303678   2.629013  -1.255726
Au   1.303676  -2.629014  -1.255731
Au  -1.303673  -2.629015  -1.255747
Au   1.303671   2.629016  -1.255752
