20
-1547.32915600
Au  -2.982176  -0.009031  -1.747861
Au   3.295672  -0.091044  -2.199092
Au  -1.219433   0.087930   0.162505
Au   1.246794   0.026480  -0.587596
Au   3.385148  -1.246581   0.147181
Au  -3.468061   1.394498   0.407124
Au   3.386556   1.390209  -0.042953
Au  -3.439057  -1.237221   0.520406
Au  -6.266180   4.842410   1.935788
Au   5.649388  -4.917985   2.128253
Au  -5.875083  -5.048252   1.923067
Au   5.808012   4.596291   2.199594
Au   5.187534  -3.100216   0.376577
Au  -5.396639   3.108396   0.271841
Au   5.379193   2.998640   0.253623
Au  -5.169486  -3.163198   0.334687
Au   5.534596  -1.185066  -1.332179
Au  -5.177932   1.384772  -1.635407
Au   5.399735   1.380479  -1.753877
Au  -5.278583  -1.211511  -1.361680
