20
-1552.05422900
Au   1.310753   0.000000  -0.585167
Au  -1.310753   0.000000  -0.585167
Au   4.039270   0.000000  -0.324551
Au  -4.039270  -0.000000  -0.324551
Au  -2.568318   1.315452   1.386050
Au   2.568318  -1.315452   1.386050
Au  -2.568318  -1.315452   1.386050
Au   2.568318   1.315452   1.386050
Au   1.302331  -3.538252   1.883644
Au  -1.302331   3.538252   1.883644
Au   1.302331   3.538252   1.883644
Au  -1.302331  -3.538252   1.883644
Au  -2.865837   1.313453  -2.248493
Au   2.865837  -1.313453  -2.248493
Au  -2.865837  -1.313453  -2.248493
Au   2.865837   1.313453  -2.248493
Au   1.330436   2.645921  -0.566342
Au  -1.330436  -2.645921  -0.566342
Au   1.330436  -2.645921  -0.566342
Au  -1.330436   2.645921  -0.566342
