20
-1550.80526300
Au   0.000000  -0.000000  -1.281875
Au   0.000000   0.000000   1.281875
Au   0.000000  -2.558787  -0.000000
Au   2.215979   1.279395   0.000000
Au  -2.215979   1.279395   0.000000
Au   0.000000   2.558787  -0.000000
Au  -2.215979  -1.279395   0.000000
Au   2.215979  -1.279395   0.000000
Au  -4.813671   1.290279   0.000000
Au   1.289420  -4.813897  -0.000000
Au   3.524251   3.523620  -0.000000
Au   4.813671  -1.290279  -0.000000
Au  -1.289420   4.813897  -0.000000
Au  -3.524251  -3.523620   0.000000
Au   3.524251  -3.523620  -0.000000
Au  -4.813671  -1.290279   0.000000
Au   1.289420   4.813897   0.000000
Au  -3.524251   3.523620  -0.000000
Au   4.813671   1.290279  -0.000000
Au  -1.289420  -4.813897  -0.000000
