20
-1553.98753100
Au  -0.000000   0.000001   1.707312
Au  -0.000002  -0.000002  -1.707311
Au   0.000005   3.918520  -0.000029
Au  -1.327643  -1.570342   0.000000
Au   1.327643  -1.570338   0.000000
Au   0.000005  -3.918521   0.000002
Au   1.327643   1.570338  -0.000001
Au  -1.327643   1.570342  -0.000000
Au  -0.000000   2.616051  -2.231667
Au  -2.239325  -1.298196  -2.482683
Au   2.239323  -1.298196  -2.482684
Au  -0.000000  -2.616039  -2.231684
Au   2.239325   1.298195  -2.482685
Au  -2.239327   1.298195  -2.482683
Au   2.239321   1.298199   2.482683
Au  -0.000001  -2.616039   2.231682
Au  -2.239322   1.298199   2.482683
Au  -2.239323  -1.298199   2.482683
Au  -0.000001   2.616027   2.231698
Au   2.239323  -1.298198   2.482684
