20
-1555.94237300
Au   0.000000   0.000000   2.038187
Au  -0.000000  -0.000000  -2.038187
Au  -0.000000  -4.087663  -0.000000
Au   3.540020   2.043832  -0.000000
Au  -3.540020   2.043832  -0.000000
Au   0.000000   4.087663  -0.000000
Au  -3.540020  -2.043832  -0.000000
Au   3.540020  -2.043832  -0.000000
Au  -2.618308  -0.000000  -1.382743
Au   1.309154  -2.267521  -1.382742
Au   1.309154   2.267521  -1.382742
Au   2.618308  -0.000000  -1.382743
Au  -1.309154   2.267521  -1.382742
Au  -1.309154  -2.267521  -1.382742
Au   1.309154  -2.267521   1.382742
Au  -2.618308  -0.000000   1.382743
Au   1.309154   2.267521   1.382742
Au  -1.309154   2.267521   1.382742
Au   2.618308  -0.000000   1.382743
Au  -1.309154  -2.267521   1.382742
