20
-1541.63074400
Au   0.000000  -0.000000  -1.265560
Au   0.000000   0.000000   1.265560
Au   6.991982  -0.000000  -0.000000
Au  -3.495991   6.055234   0.000000
Au  -3.495991  -6.055234  -0.000000
Au  -6.991982  -0.000000   0.000000
Au   3.495991  -6.055234  -0.000000
Au   3.495991   6.055234  -0.000000
Au  -4.769350   1.287610  -0.000000
Au   1.269572  -4.774184  -0.000000
Au   3.499778   3.486574  -0.000000
Au   4.769350  -1.287610  -0.000000
Au  -1.269572   4.774184  -0.000000
Au  -3.499778  -3.486574   0.000000
Au   3.499778  -3.486574   0.000000
Au  -4.769350  -1.287610  -0.000000
Au   1.269572   4.774184   0.000000
Au  -3.499778   3.486574   0.000000
Au   4.769350   1.287610  -0.000000
Au  -1.269572  -4.774184   0.000000
