20
-1549.18652100
Au   2.445791   2.445791  -0.002507
Au  -2.445791  -2.445791  -0.002507
Au  -2.445791   2.445791  -0.002507
Au   2.445791  -2.445791  -0.002507
Au   3.111100   3.111100   2.397250
Au  -3.111100  -3.111100   2.397250
Au  -3.111100   3.111100   2.397250
Au   3.111100  -3.111100   2.397250
Au   1.299099   1.299099   2.065888
Au  -1.299099  -1.299099   2.065888
Au  -1.299099   1.299099   2.065888
Au   1.299099  -1.299099   2.065888
Au   3.117050  -1.287873  -2.230316
Au  -3.117050   1.287873  -2.230316
Au   1.287873   3.117050  -2.230316
Au  -1.287873  -3.117050  -2.230316
Au   3.117050   1.287873  -2.230316
Au  -3.117050  -1.287873  -2.230316
Au   1.287873  -3.117050  -2.230316
Au  -1.287873   3.117050  -2.230316
