20
-1553.99771800
Au  -0.000000  -0.000000  -1.816783
Au   0.000000  -0.000000   1.816783
Au   3.827827  -0.000000   0.000007
Au  -1.440927   1.324579  -0.000000
Au  -1.440927  -1.324579  -0.000000
Au  -3.827827   0.000000   0.000011
Au   1.440927  -1.324579  -0.000000
Au   1.440927   1.324579  -0.000000
Au  -2.599364  -0.000000   2.266202
Au   1.297977  -2.256020   2.479372
Au   1.297978   2.256020   2.479372
Au   2.599362  -0.000000   2.266204
Au  -1.297977   2.256020   2.479372
Au  -1.297978  -2.256020   2.479372
Au   1.297978  -2.256019  -2.479371
Au  -2.599355  -0.000000  -2.266213
Au   1.297978   2.256019  -2.479372
Au  -1.297978   2.256018  -2.479371
Au   2.599357  -0.000000  -2.266211
Au  -1.297978  -2.256018  -2.479371
