20
-1552.50785100
Au  -0.000000  -0.000000  -1.474612
Au  -0.000000  -0.000000   1.474612
Au   3.183003  -0.000000  -0.000018
Au  -1.309178   1.824396   0.000000
Au  -1.309178  -1.824396   0.000000
Au  -3.183002   0.000000   0.000002
Au   1.309177  -1.824397  -0.000001
Au   1.309177   1.824397  -0.000001
Au   2.890339  -0.000000   2.581808
Au  -1.300993   2.056823   2.606128
Au  -1.300993  -2.056823   2.606128
Au  -2.890337   0.000000   2.581805
Au   1.300990  -2.056827   2.606133
Au   1.300990   2.056827   2.606133
Au  -1.300993   2.056823  -2.606128
Au   2.890338  -0.000000  -2.581803
Au  -1.300993  -2.056823  -2.606129
Au   1.300996  -2.056820  -2.606125
Au  -2.890337   0.000000  -2.581805
Au   1.300996   2.056820  -2.606125
