20
-1554.51472800
Au   0.000002  -0.000009   3.462866
Au   0.000003   0.000002  -1.464729
Au  -2.007628   1.438196  -0.573799
Au  -0.000315  -2.800515   0.877880
Au   2.007266   1.438508  -0.573691
Au   2.007650  -1.438231  -0.573859
Au   0.000285   2.800532   0.877867
Au  -2.007255  -1.438498  -0.573657
Au   1.384126  -1.309103  -3.305534
Au  -0.000451   2.780446  -1.692008
Au  -1.383570  -1.309766  -3.305692
Au  -1.384118   1.309103  -3.305539
Au   0.000459  -2.780448  -1.692018
Au   1.383586   1.309770  -3.305692
Au   1.828108  -1.324089   2.042787
Au   0.000325   2.589573   3.488010
Au  -1.828668  -1.323922   2.042992
Au  -1.828134   1.324079   2.042793
Au  -0.000311  -2.589580   3.488027
Au   1.828640   1.323952   2.042995
