20
-1553.52870000
Au   0.000000  -0.000000  -4.541327
Au   0.000000   0.000000  -1.855922
Au   2.250158  -1.299222  -1.033695
Au  -0.000002   2.598304  -1.033718
Au  -2.250156  -1.299226  -1.033695
Au  -2.250156   1.299226  -1.033695
Au  -0.000002  -2.598304  -1.033718
Au   2.250158   1.299222  -1.033695
Au   2.244532  -1.295744   1.743104
Au  -0.000003   2.591638   1.743084
Au  -2.244529  -1.295750   1.743104
Au  -2.244529   1.295750   1.743104
Au  -0.000003  -2.591638   1.743084
Au   2.244532   1.295744   1.743104
Au  -4.029204   0.000000   0.356830
Au   2.014589  -3.489396   0.356804
Au   2.014589   3.489396   0.356804
Au   4.029201  -0.000000   0.356831
Au  -2.014588   3.489394   0.356805
Au  -2.014588  -3.489394   0.356805
