20
-1545.20629400
Au  -0.000008  -0.000000  -6.215601
Au   0.000013  -0.000010   3.655342
Au  -2.240184   1.293382  -6.214885
Au   0.000002  -2.586849  -6.214443
Au   2.240186   1.293378  -6.214885
Au   2.240186  -1.293378  -6.214885
Au   0.000002   2.586849  -6.214443
Au  -2.240184  -1.293382  -6.214885
Au   5.151305  -0.000002   3.336242
Au  -2.575987   4.461724   3.336248
Au  -2.575992  -4.461737   3.336247
Au  -5.151285   0.000001   3.336246
Au   2.575996  -4.461741   3.336244
Au   2.575991   4.461735   3.336247
Au   2.591088  -0.000001   3.305372
Au  -1.295742   2.244533   3.305117
Au  -1.295734  -2.244519   3.305116
Au  -2.591120  -0.000002   3.305367
Au   1.295727  -2.244499   3.305122
Au   1.295739   2.244517   3.305116
