20
-1552.22652900
Au   0.000366  -0.000440  -1.194241
Au  -0.000449  -0.000378   2.226421
Au   2.108974  -0.001997   0.360400
Au  -1.613083   2.179792  -1.019602
Au  -1.622270  -2.176754  -1.019886
Au  -2.109006   0.002441   0.359057
Au   1.618119  -2.180015  -1.018628
Au   1.618381   2.176615  -1.018787
Au   2.409159  -0.001836  -2.245786
Au  -1.318703   4.725510  -1.389295
Au  -1.303274  -4.718182  -1.396834
Au  -2.408569   0.003236  -2.247079
Au   1.319398  -4.724781  -1.388914
Au   1.304113   4.718545  -1.396501
Au  -2.504867   0.003812   2.910289
Au   1.338028  -2.166850   1.642100
Au   1.342878   2.162879   1.642334
Au   2.503816  -0.004281   2.911681
Au  -1.338916   2.165907   1.641535
Au  -1.344095  -2.163224   1.641737
