20
-1548.88660600
Au   3.353941  -0.000006  -0.000019
Au  -3.353941   0.000006  -0.000019
Au  -0.000006   3.353941  -0.000019
Au   0.000006  -3.353941  -0.000019
Au  -1.295369   3.118163  -2.245207
Au   1.295369  -3.118163  -2.245207
Au  -3.118172  -1.295372  -2.245217
Au   3.118172   1.295372  -2.245217
Au  -1.295372  -3.118172  -2.245218
Au   1.295372   3.118172  -2.245218
Au  -3.118163   1.295369  -2.245206
Au   3.118163  -1.295369  -2.245206
Au  -3.118108   1.295384   2.245216
Au   3.118108  -1.295384   2.245216
Au  -1.295384  -3.118114   2.245228
Au   1.295384   3.118114   2.245228
Au  -3.118115  -1.295384   2.245228
Au   3.118115   1.295384   2.245228
Au  -1.295384   3.118108   2.245215
Au   1.295384  -3.118108   2.245215
