20
-1553.21621600
Au   0.000904  -0.000721   1.189289
Au   0.000743   0.001840  -1.472015
Au  -1.520247   1.722874  -0.132335
Au  -0.603608  -2.566276   1.217648
Au   2.131523   0.860554  -0.131911
Au   1.521902  -1.722175  -0.134134
Au   0.606773   2.564748   1.220230
Au  -2.129503  -0.861596  -0.134781
Au  -1.215256  -5.152115   0.702302
Au   4.623070   1.538486  -0.638853
Au  -3.450399   3.443359  -0.624453
Au   1.216346   5.150261   0.705727
Au  -4.626314  -1.536251  -0.623664
Au   3.445667  -3.443165  -0.646442
Au   3.002683   3.294067   0.397369
Au   1.211302  -4.289095   0.388595
Au  -3.867296   0.912942  -1.036230
Au  -3.000912  -3.294145   0.399650
Au  -1.211824   4.288016   0.402670
Au   3.864445  -0.911605  -1.048662
