20
-1550.93142900
Au  -0.037545  -0.000011   2.758760
Au  -0.002780  -0.000005   0.001396
Au  -2.233191   1.392673  -0.123417
Au   0.049398  -2.588688  -0.150357
Au   2.278935   1.293501  -0.125172
Au   2.276096  -1.297689  -0.125210
Au   0.053791   2.588837  -0.150348
Au  -2.235858  -1.389287  -0.123371
Au  -3.613911   3.610639  -0.169832
Au  -1.309572  -4.813879  -0.220120
Au   4.852153   1.304602  -0.124494
Au   3.526785  -3.542185  -0.157233
Au   1.296496   4.871789  -0.209155
Au  -4.825724  -1.306387  -0.100351
Au  -4.822967   1.304284  -0.100396
Au   3.524068   3.541242  -0.157412
Au   1.296820  -4.868620  -0.208922
Au   4.849219  -1.302200  -0.124369
Au  -3.612274  -3.610372  -0.170061
Au  -1.309938   4.811757  -0.219935
