20
-1551.68276100
Au  -0.021463   1.419297   2.433285
Au  -0.003408  -0.072629   0.262533
Au  -2.612006  -0.168974   0.134413
Au   1.343218  -2.298775  -0.229028
Au   1.251438   2.223670   0.287373
Au   2.618152   0.009337   0.128005
Au  -1.357532   2.238965   0.338215
Au  -1.223924  -2.296542  -0.293653
Au  -3.573089   3.479228  -0.214297
Au  -1.308390  -4.893208  -0.604391
Au   4.916784   1.209892   0.027654
Au   3.549139  -3.642313  -0.202470
Au   1.296566   4.677633  -0.643796
Au  -4.910833  -1.372134  -0.000517
Au  -4.796305   1.220400   0.251287
Au   3.528301   3.381682  -0.277344
Au   1.282532  -4.879689  -0.501995
Au   4.830035  -1.389955   0.095960
Au  -3.510609  -3.522574  -0.390261
Au  -1.298607   4.676687  -0.600972
