20
-1550.83338300
Au  -1.077369  -2.967985   1.737524
Au   1.077370   2.967984   1.737524
Au  -3.677784   1.424046  -1.825685
Au   3.677784  -1.424046  -1.825685
Au   1.414746  -3.058803   2.429840
Au  -1.414747   3.058803   2.429840
Au  -3.566645  -1.137629  -1.508475
Au   3.566644   1.137629  -1.508475
Au   2.545566  -3.746914  -1.848996
Au  -2.545566   3.746914  -1.848996
Au  -3.197572  -1.696336   1.035241
Au   3.197571   1.696337   1.035241
Au   4.557380  -0.401449   0.410277
Au  -4.557380   0.401449   0.410278
Au   0.681829  -3.500917  -0.074316
Au  -0.681829   3.500917  -0.074316
Au  -1.744779  -2.865964  -0.824069
Au   1.744779   2.865964  -0.824069
Au  -3.029115   2.510168   0.468658
Au   3.029115  -2.510168   0.468658
