20
-1557.19624100
Au   2.147659  -3.285381  -2.774082
Au  -2.147659   3.285381  -2.774082
Au  -3.285381  -2.147653   2.774084
Au   3.285381   2.147653   2.774084
Au   1.507086   2.602873   0.926578
Au  -1.507086  -2.602873   0.926578
Au   2.602882  -1.507089  -0.926578
Au  -2.602882   1.507089  -0.926578
Au  -1.167525  -0.748147  -0.974237
Au   1.167525   0.748147  -0.974237
Au  -0.748151   1.167515   0.974282
Au   0.748151  -1.167515   0.974282
Au   0.723197  -1.105583  -2.834575
Au  -0.723197   1.105583  -2.834575
Au  -1.105582  -0.723193   2.834522
Au   1.105582   0.723193   2.834522
Au   2.967510   0.326009   0.939871
Au  -2.967510  -0.326009   0.939871
Au   0.326012  -2.967505  -0.939865
Au  -0.326012   2.967505  -0.939865
