20
-1550.26202000
Au   0.000000   0.000000  -4.760475
Au   0.000000   0.000000   4.760475
Au  -0.000000  -0.000000   2.198842
Au   0.000000  -0.000000  -2.198842
Au  -0.000000   3.974794   0.000000
Au   0.000000  -3.974794  -0.000000
Au  -0.000000   1.376364  -0.000000
Au  -0.000000  -1.376364   0.000000
Au   2.221986  -0.000000  -0.000000
Au  -2.221986  -0.000000   0.000000
Au   4.841725   0.000000   0.000000
Au  -4.841725   0.000000  -0.000000
Au  -2.265908  -2.672135   0.000000
Au   2.265908   2.672135  -0.000000
Au   2.265908  -2.672135  -0.000000
Au  -2.265908   2.672135   0.000000
Au  -4.853114   2.561446   0.000000
Au   4.853114  -2.561446  -0.000000
Au   4.853114   2.561446  -0.000000
Au  -4.853114  -2.561446   0.000000
