20
-1547.74936800
Au   0.000000   0.000000  -2.225749
Au   0.000000  -0.000000   2.225749
Au  -0.000000   0.000000  -4.783488
Au  -0.000000  -0.000000   4.783488
Au  -0.000000  -1.343515  -0.000000
Au  -0.000000   1.343515  -0.000000
Au  -0.000000  -3.936851  -0.000000
Au  -0.000000   3.936851  -0.000000
Au   4.822565   0.000000  -0.000000
Au  -4.822565  -0.000000   0.000000
Au  -2.240186   0.000000  -0.000000
Au   2.240186  -0.000000   0.000000
Au   2.274132  -2.668965   0.000000
Au  -2.274132   2.668965  -0.000000
Au  -2.274132  -2.668965  -0.000000
Au   2.274132   2.668965   0.000000
Au   2.570894  -0.000000   2.573404
Au  -2.570894  -0.000000   2.573404
Au  -2.570894   0.000000  -2.573404
Au   2.570894   0.000000  -2.573404
