20
-1549.47655800
Au   0.000000   0.000000   1.344172
Au   0.000000   0.000000  -1.344172
Au  -0.000000   0.000000  -3.944075
Au   0.000000   0.000000   3.944075
Au  -0.000000  -2.220255   0.000000
Au  -0.000000   2.220255   0.000000
Au  -0.000000   4.781670   0.000000
Au  -0.000000  -4.781670   0.000000
Au  -2.213611   0.000000   0.000000
Au   2.213611  -0.000000  -0.000000
Au  -4.774960  -0.000000  -0.000000
Au   4.774960  -0.000000   0.000000
Au   2.295530  -0.000000  -2.615176
Au  -2.295530   0.000000  -2.615176
Au  -2.295530   0.000000   2.615176
Au   2.295530  -0.000000   2.615176
Au  -2.245110   0.000000   5.219136
Au   2.245110   0.000000   5.219136
Au   2.245110   0.000000  -5.219136
Au  -2.245110   0.000000  -5.219136
