20
-1552.63225500
Au   1.326069   1.321946  -0.652059
Au  -1.326069  -1.321946  -0.652059
Au  -1.326753   1.318794  -0.652079
Au   1.326753  -1.318794  -0.652079
Au   3.373841  -1.294081   1.044278
Au  -3.373841   1.294081   1.044278
Au   1.297138   2.804299   1.553590
Au  -1.297138  -2.804299   1.553590
Au   3.372579   1.293719   1.044878
Au  -3.372579  -1.293719   1.044878
Au   1.296627  -2.801726   1.553949
Au  -1.296627   2.801726   1.553949
Au   3.815962   1.294835  -1.545477
Au  -3.815962  -1.294835  -1.545477
Au  -2.892977   3.429876  -0.400854
Au   2.892977  -3.429876  -0.400854
Au   3.815980  -1.295395  -1.546117
Au  -3.815980   1.295395  -1.546117
Au  -2.895465  -3.430448  -0.400110
Au   2.895465   3.430448  -0.400110
