20
-1546.09002500
Au  -0.000000  -0.000004  -2.170987
Au   0.000000  -0.000002   2.170987
Au  -0.000000   0.000000  -4.721673
Au   0.000000   0.000000   4.721673
Au  -0.000000   1.332762   0.000001
Au  -0.000000  -1.332758  -0.000001
Au  -0.000000   3.923154  -0.000000
Au   0.000000  -3.923156   0.000000
Au   2.227936  -0.000000  -0.000000
Au  -2.227936  -0.000000  -0.000000
Au   4.792078  -0.000000  -0.000000
Au  -4.792078  -0.000000  -0.000000
Au  -1.963051  -5.631351  -0.000000
Au   1.963051   5.631351  -0.000000
Au   1.963051  -5.631351  -0.000000
Au  -1.963051   5.631351  -0.000000
Au  -0.000000  -2.568888  -2.258918
Au  -0.000000   2.568891  -2.258918
Au   0.000000  -2.568889   2.258918
Au   0.000000   2.568890   2.258917
