20
-1550.21064200
Au   0.000000  -0.000000  -4.865656
Au  -0.000000   0.000000   4.865656
Au   0.000000  -0.000000   2.276319
Au   0.000000   0.000000  -2.276319
Au   0.000000   1.284287   0.000000
Au   0.000000  -1.284287  -0.000000
Au   0.000000   3.933133   0.000000
Au  -0.000000  -3.933133  -0.000000
Au  -4.810139  -0.000000   0.000000
Au   4.810139  -0.000000  -0.000000
Au  -2.250935   0.000000   0.000000
Au   2.250935  -0.000000  -0.000000
Au   2.247820  -2.594162   0.000000
Au  -2.247820   2.594162  -0.000000
Au  -2.247820  -2.594162  -0.000000
Au   2.247820   2.594162  -0.000000
Au   0.000000  -2.641811   2.250569
Au   0.000000   2.641811   2.250569
Au  -0.000000  -2.641811  -2.250569
Au  -0.000000   2.641811  -2.250569
