20
-1551.88782600
Au   0.000000  -0.000000   2.223959
Au  -0.000000  -0.000000  -2.223959
Au   0.000000  -0.000000   6.734658
Au   0.000000  -0.000000  -6.734658
Au  -0.000000   1.315775  -0.000000
Au  -0.000000  -1.315775   0.000000
Au   0.000000   3.920721  -0.000000
Au  -0.000000  -3.920721   0.000000
Au  -2.235359  -0.000000   0.000000
Au   2.235359  -0.000000   0.000000
Au   4.797081   0.000000   0.000000
Au  -4.797081   0.000000   0.000000
Au  -0.000000   2.665273  -2.277055
Au   0.000000  -2.665273  -2.277055
Au   0.000000   2.665273   2.277055
Au   0.000000  -2.665273   2.277055
Au  -0.000000   1.313693  -4.498147
Au  -0.000000  -1.313693  -4.498147
Au   0.000000   1.313693   4.498147
Au   0.000000  -1.313693   4.498147
