20
-1554.93296600
Au   0.769405   0.253161   0.935623
Au   0.704468   0.212569  -1.630671
Au   0.486874  -0.154624   3.484369
Au   0.605038   0.098597  -4.224858
Au  -2.356552   3.432786   0.877789
Au  -1.080327  -3.759101   1.270666
Au  -0.142467  -2.061499  -0.471008
Au  -0.496005   2.278181  -0.547193
Au  -1.899441  -0.060997  -0.578914
Au   2.407687  -1.461118  -0.260101
Au  -2.859669   0.984497   1.627555
Au   2.965054  -0.546198   2.190253
Au   2.049945   1.831965   2.707366
Au  -1.403189  -1.186390   1.807921
Au  -1.452912   1.221164  -2.838741
Au   1.470964  -2.007280  -2.709484
Au  -1.087347  -1.365590  -2.827412
Au   0.845365   2.433178  -2.976234
Au   1.005402  -2.272265   1.937826
Au  -0.532292   2.128964   2.225249
