20
-1548.46515700
Au  -0.000000  -0.000000   2.232935
Au  -0.000000   0.000000  -2.232935
Au   0.000000  -0.000000   4.791588
Au   0.000000  -0.000000  -4.791588
Au  -0.000000  -1.324333  -0.000000
Au  -0.000000   1.324333   0.000000
Au  -0.000000   3.937212   0.000000
Au   0.000000  -3.937212   0.000000
Au  -2.226816  -2.655623  -0.000000
Au   2.226816   2.655623  -0.000000
Au   2.226816  -2.655623  -0.000000
Au  -2.226816   2.655623  -0.000000
Au  -4.491613   3.883707  -0.000000
Au   4.491613  -3.883707  -0.000000
Au   4.491613   3.883707  -0.000000
Au  -4.491613  -3.883707  -0.000000
Au   4.432674  -1.289601  -0.000000
Au  -4.432674   1.289601   0.000000
Au  -4.432674  -1.289601  -0.000000
Au   4.432674   1.289601   0.000000
