20
-1547.09459700
Au   0.000000   0.000000   4.817808
Au   0.000000  -0.000000  -4.817808
Au  -0.000000   0.000000  -2.258293
Au  -0.000000  -0.000000   2.258293
Au  -0.000000   1.293469   0.000000
Au  -0.000000  -1.293469  -0.000000
Au   0.000000  -3.889996   0.000000
Au   0.000000   3.889996  -0.000000
Au   2.293530   5.117560   0.000000
Au  -2.293530  -5.117560  -0.000000
Au  -2.293530   5.117560  -0.000000
Au   2.293530  -5.117560  -0.000000
Au   4.496051  -1.289469  -0.000000
Au  -4.496051   1.289469  -0.000000
Au  -4.496051  -1.289469  -0.000000
Au   4.496051   1.289469   0.000000
Au   2.246406  -2.542633   0.000000
Au  -2.246406   2.542633   0.000000
Au  -2.246406  -2.542633   0.000000
Au   2.246406   2.542633  -0.000000
