20
-1551.33593200
Au  -0.000000   0.000000  -3.892942
Au  -0.000000   0.000000   3.892942
Au   0.000000  -0.000000   1.282832
Au   0.000000   0.000000  -1.282832
Au  -0.000000   2.285970   0.000000
Au  -0.000000  -2.285970  -0.000000
Au   0.000000   4.849214  -0.000000
Au  -0.000000  -4.849214   0.000000
Au  -2.425698   1.276402   0.000000
Au   2.425698  -1.276402  -0.000000
Au   2.425698   1.276402  -0.000000
Au  -2.425698  -1.276402  -0.000000
Au   4.501778   0.000000  -1.283855
Au  -4.501778   0.000000  -1.283855
Au  -4.501778  -0.000000   1.283855
Au   4.501778   0.000000   1.283855
Au  -2.258246   0.000000   2.542600
Au   2.258246  -0.000000   2.542600
Au   2.258246   0.000000  -2.542600
Au  -2.258246   0.000000  -2.542600
