20
-1550.00168600
Au  -0.000000   0.000000  -3.562530
Au   0.000000  -0.000000   3.562530
Au  -0.000000   0.000000   6.115464
Au   0.000000  -0.000000  -6.115464
Au   0.000000  -4.466775   0.000000
Au   0.000000   4.466775  -0.000000
Au  -0.000000   1.900512   0.000000
Au  -0.000000  -1.900512  -0.000000
Au   1.317281  -0.000000   1.304762
Au  -1.317281   0.000000   1.304762
Au  -1.317281   0.000000  -1.304762
Au   1.317281   0.000000  -1.304762
Au   2.605906  -0.000000   3.556266
Au  -2.605906   0.000000   3.556266
Au  -2.605906   0.000000  -3.556266
Au   2.605906  -0.000000  -3.556266
Au   3.931451  -0.000000   1.304389
Au  -3.931451   0.000000   1.304389
Au  -3.931451   0.000000  -1.304389
Au   3.931451  -0.000000  -1.304389
