20
-1549.65435900
Au   0.000000   0.000000   2.562966
Au   0.000000  -0.000000  -2.562966
Au   0.000000  -0.000000  -5.177604
Au  -0.000000   0.000000   5.177604
Au  -0.000000  -1.274625  -0.000000
Au  -0.000000   1.274625   0.000000
Au   0.000000  -3.861480   0.000000
Au   0.000000   3.861480  -0.000000
Au  -4.785080   0.000000  -1.289816
Au   4.785080   0.000000  -1.289816
Au   4.785080  -0.000000   1.289816
Au  -4.785080  -0.000000   1.289816
Au  -2.261398   0.000000   3.897335
Au   2.261398   0.000000   3.897335
Au   2.261398  -0.000000  -3.897335
Au  -2.261398   0.000000  -3.897335
Au  -2.215507  -0.000000   1.279695
Au   2.215507  -0.000000   1.279695
Au   2.215507  -0.000000  -1.279695
Au  -2.215507  -0.000000  -1.279695
