20
-1545.76812300
Au  -0.000000  -0.000000   1.874086
Au   0.000000  -0.000000  -1.874086
Au   0.000000   0.000000  -4.440801
Au   0.000000   0.000000   4.440801
Au  -4.383382   0.000000   0.000000
Au   4.383382  -0.000000   0.000000
Au   0.000000  -4.383382  -0.000000
Au  -0.000000   4.383382  -0.000000
Au   1.837883   0.000000   0.000000
Au  -1.837883  -0.000000  -0.000000
Au   0.000000   1.837883  -0.000000
Au  -0.000000  -1.837883   0.000000
Au   2.505912   2.505912   0.000000
Au  -2.505912  -2.505912  -0.000000
Au  -2.505912   2.505912  -0.000000
Au   2.505912  -2.505912   0.000000
Au   4.319167   4.319167  -0.000000
Au  -4.319167  -4.319167  -0.000000
Au  -4.319167   4.319167  -0.000000
Au   4.319167  -4.319167  -0.000000
