20
-1549.86373500
Au   0.000000  -0.917308  -1.932813
Au  -0.000000   0.796899   2.223831
Au  -0.000000   0.434767   4.803865
Au  -0.000000  -0.572739  -4.515125
Au  -0.000000   3.491508  -1.240919
Au  -0.000000  -3.315822  -0.958765
Au  -0.000000   1.108980  -0.322300
Au  -0.000000  -1.258126   0.641656
Au  -0.000000  -2.698718  -8.690291
Au  -0.000000   3.848622  -7.080304
Au   0.000000  -4.005594   7.330425
Au  -0.000000   3.638604   8.675696
Au  -0.000000   1.520732  -2.937453
Au  -0.000000  -2.989213  -3.544126
Au  -0.000000   2.829974   3.814571
Au  -0.000000  -1.623833   3.205232
Au  -0.000000  -1.956608   5.779204
Au  -0.000000   2.489693   6.384545
Au  -0.000000  -2.628126  -6.111583
Au  -0.000000   1.806306  -5.525348
