20
-1551.34654200
Au   0.000000  -0.000000   2.266008
Au   0.000000  -0.000000  -2.266008
Au   0.000000   0.000000   4.858157
Au  -0.000000   0.000000  -4.858157
Au   0.000000  -3.978578  -0.000000
Au  -0.000000   3.978578   0.000000
Au  -0.000000  -1.306957  -0.000000
Au  -0.000000   1.306957   0.000000
Au   0.000000  -2.590396  -2.252022
Au   0.000000   2.590396  -2.252022
Au   0.000000  -2.590396   2.252022
Au   0.000000   2.590396   2.252022
Au  -0.000000   5.186996   2.317374
Au  -0.000000  -5.186996   2.317374
Au  -0.000000   5.186996  -2.317374
Au  -0.000000  -5.186996  -2.317374
Au   0.000000  -2.569837   4.829680
Au   0.000000   2.569837   4.829680
Au   0.000000  -2.569837  -4.829680
Au   0.000000   2.569837  -4.829680
