20
-1548.29544400
Au  -0.000000  -0.000000  -3.957593
Au  -0.000000   0.000000   3.957593
Au  -0.000000   0.000000   1.309516
Au  -0.000000  -0.000000  -1.309516
Au  -0.000000  -2.264244   0.000000
Au  -0.000000   2.264244  -0.000000
Au  -0.000000   4.850434   0.000000
Au  -0.000000  -4.850434  -0.000000
Au   2.573117   0.000000  -3.885361
Au  -2.573117   0.000000  -3.885361
Au  -2.573117  -0.000000   3.885361
Au   2.573117   0.000000   3.885361
Au   2.590031   0.000000  -1.292870
Au  -2.590031   0.000000  -1.292870
Au  -2.590031  -0.000000   1.292870
Au   2.590031   0.000000   1.292870
Au  -0.000000   2.267098  -2.640074
Au  -0.000000  -2.267098  -2.640074
Au  -0.000000   2.267098   2.640074
Au  -0.000000  -2.267098   2.640074
