20
-1547.11253800
Au  -0.000000   0.000000   3.991896
Au  -0.000000  -0.000000  -3.991896
Au  -0.000000  -0.000000  -1.283783
Au  -0.000000   0.000000   1.283783
Au   0.000000  -2.243275   0.000000
Au  -0.000000   2.243275  -0.000000
Au   0.000000   4.790641  -0.000000
Au   0.000000  -4.790641  -0.000000
Au  -2.210258   0.000000   2.661792
Au   2.210258  -0.000000   2.661792
Au   2.210258   0.000000  -2.661792
Au  -2.210258   0.000000  -2.661792
Au  -0.000000   2.206507   2.611885
Au   0.000000  -2.206507   2.611885
Au   0.000000   2.206507  -2.611885
Au  -0.000000  -2.206507  -2.611885
Au  -0.000000  -3.868412  -4.575361
Au   0.000000   3.868412  -4.575361
Au   0.000000  -3.868412   4.575361
Au  -0.000000   3.868412   4.575361
