20
-1548.60856700
Au   0.000000   0.000000  -2.248492
Au   0.000000   0.000000   2.248492
Au  -0.000000  -1.313553   0.000000
Au   0.000000   1.313553  -0.000000
Au  -1.287880   3.564237   0.000000
Au   1.287880  -3.564237  -0.000000
Au   1.287880   3.564237  -0.000000
Au  -1.287880  -3.564237   0.000000
Au  -1.299179   6.132410  -0.000000
Au   1.299179  -6.132410  -0.000000
Au   1.299179   6.132410   0.000000
Au  -1.299179  -6.132410   0.000000
Au   3.883525  -3.597747  -0.000000
Au  -3.883525   3.597747   0.000000
Au  -3.883525  -3.597747   0.000000
Au   3.883525   3.597747   0.000000
Au   2.625542   1.314583   0.000000
Au  -2.625542  -1.314583  -0.000000
Au  -2.625542   1.314583   0.000000
Au   2.625542  -1.314583  -0.000000
