20
-1550.80922800
Au   0.000006  -0.000000  -1.282893
Au  -0.000005  -0.000000   1.282893
Au  -0.000000  -2.481390   0.000000
Au   0.000000   2.481390  -0.000000
Au  -1.288847   4.743731   0.000000
Au   1.288847  -4.743731  -0.000000
Au   1.288847   4.743731  -0.000000
Au  -1.288847  -4.743731   0.000000
Au   3.565174   3.527966   0.000000
Au  -3.565174  -3.527966  -0.000000
Au  -3.565173   3.527965  -0.000000
Au   3.565173  -3.527966   0.000000
Au  -4.854806  -1.291415  -0.000000
Au   4.854806   1.291415   0.000000
Au   4.854806  -1.291414   0.000000
Au  -4.854806   1.291414  -0.000000
Au  -2.262302  -1.278791   0.000003
Au   2.262302   1.278791  -0.000003
Au   2.262301  -1.278790  -0.000003
Au  -2.262301   1.278790   0.000003
