20
-1554.33868400
Au   0.454990   0.585853   4.732264
Au   0.462080   0.606402  -4.715696
Au   0.128926  -0.984877  -2.632456
Au   0.130206  -0.978001   2.627831
Au  -0.588590   1.246468  -0.003908
Au   0.126476  -1.310876  -0.001073
Au   1.200510  -3.701861   0.004755
Au  -1.578011   3.677864  -0.005360
Au   2.538278  -0.387521   3.513503
Au  -1.823969   0.756754   3.483963
Au  -1.824806   0.756974  -3.480695
Au   2.540290  -0.399178  -3.516227
Au  -2.101313  -0.662862   1.292478
Au   1.664291   0.710286   1.295121
Au   2.415960  -1.805573  -1.320635
Au  -2.864100   1.823184  -1.316505
Au   1.660918   0.708566  -1.306595
Au  -2.101925  -0.668758  -1.294629
Au  -2.858081   1.830031   1.320858
Au   2.417872  -1.802873   1.323005
