20
-1548.96305100
Au   0.000000   0.000000  -1.288749
Au  -0.000000   0.000000   1.288749
Au  -0.000000  -0.000000   3.868365
Au   0.000000  -0.000000  -3.868365
Au  -5.176053  -0.000000  -1.304127
Au   5.176054  -0.000000  -1.304127
Au   5.176053  -0.000000   1.304127
Au  -5.176054  -0.000000   1.304127
Au  -2.582954   0.000000  -3.885423
Au   2.582954   0.000000  -3.885423
Au   2.582954   0.000000   3.885423
Au  -2.582954   0.000000   3.885423
Au  -2.588995   0.000000  -1.301200
Au   2.588995   0.000000  -1.301200
Au   2.588995   0.000000   1.301200
Au  -2.588995   0.000000   1.301200
Au   1.300702  -0.000000   6.137052
Au  -1.300702  -0.000000   6.137052
Au  -1.300702  -0.000000  -6.137052
Au   1.300702  -0.000000  -6.137052
