20
-1550.26866900
Au  -0.000000  -0.000000   3.602262
Au   0.000000  -0.000000  -3.602262
Au  -0.000000   1.905537   0.000000
Au   0.000000  -1.905537  -0.000000
Au  -4.667642   0.000000   5.095990
Au   4.667642  -0.000000   5.095990
Au   4.667642   0.000000  -5.095990
Au  -4.667642   0.000000  -5.095990
Au   2.611189  -0.000000   3.557270
Au  -2.611189  -0.000000   3.557270
Au  -2.611189  -0.000000  -3.557270
Au   2.611189   0.000000  -3.557270
Au  -1.296120  -0.000000   1.315634
Au   1.296120  -0.000000   1.315634
Au   1.296120   0.000000  -1.315634
Au  -1.296120   0.000000  -1.315634
Au  -3.883139  -0.000000  -1.284962
Au   3.883139   0.000000  -1.284962
Au   3.883139  -0.000000   1.284962
Au  -3.883139   0.000000   1.284962
