20
-1549.12655000
Au  -0.000000   1.299927  -0.000000
Au  -0.000000  -1.299927  -0.000000
Au  -0.000000  -3.879266  -0.000000
Au  -0.000000   3.879266  -0.000000
Au  -4.568309  -0.000000   1.285732
Au   4.568309   0.000000   1.285732
Au   4.568309   0.000000  -1.285732
Au  -4.568309  -0.000000  -1.285732
Au   1.283205  -0.000000  -3.838598
Au  -1.283205  -0.000000  -3.838598
Au  -1.283205  -0.000000   3.838598
Au   1.283205   0.000000   3.838598
Au   1.968317   0.000000   1.324733
Au  -1.968317  -0.000000   1.324733
Au  -1.968317   0.000000  -1.324733
Au   1.968317   0.000000  -1.324733
Au   3.849158   0.000000  -3.751257
Au  -3.849158  -0.000000  -3.751257
Au  -3.849158  -0.000000   3.751257
Au   3.849158   0.000000   3.751257
