20
-1551.98664600
Au   0.000000  -0.000000  -4.925937
Au  -0.000000   0.000000   4.925937
Au   0.000000  -0.000000   2.331112
Au   0.000000   0.000000  -2.331112
Au   0.000000   1.296489   0.000000
Au   0.000000  -1.296489  -0.000000
Au   0.000000   3.902445   0.000000
Au  -0.000000  -3.902445  -0.000000
Au  -0.000000   2.623647   2.271354
Au   0.000000  -2.623647   2.271354
Au  -0.000000   2.623647  -2.271354
Au   0.000000  -2.623647  -2.271354
Au   2.214564   1.318950  -1.373852
Au  -2.214564  -1.318950  -1.373852
Au  -2.214564   1.318950   1.373852
Au   2.214564  -1.318950   1.373852
Au  -2.214564  -1.318950   1.373852
Au   2.214564   1.318950   1.373852
Au   2.214564  -1.318950  -1.373852
Au  -2.214564   1.318950  -1.373852
