20
-1550.69954800
Au  -0.000000  -0.000000   3.879000
Au  -0.000000   0.000000  -3.879000
Au  -0.000000  -0.000000  -1.291081
Au  -0.000000   0.000000   1.291081
Au  -0.000000  -2.596263  -3.893705
Au   0.000000   2.596263  -3.893705
Au  -0.000000  -2.596263   3.893705
Au  -0.000000   2.596263   3.893705
Au  -0.000000   1.295610  -6.183562
Au   0.000000  -1.295610  -6.183562
Au  -0.000000   1.295610   6.183562
Au  -0.000000  -1.295610   6.183562
Au   0.000000  -3.888787   6.141774
Au   0.000000   3.888787   6.141774
Au   0.000000  -3.888787  -6.141774
Au   0.000000   3.888787  -6.141774
Au   0.000000  -2.553082   1.301326
Au  -0.000000   2.553082   1.301326
Au  -0.000000  -2.553082  -1.301326
Au   0.000000   2.553082  -1.301326
