20
-1551.61839800
Au  -0.000000   0.000000  -1.276668
Au   0.000000   0.000000   1.276668
Au  -0.000000   0.000000   3.863768
Au   0.000000   0.000000  -3.863768
Au   0.000000   2.680736   0.000000
Au  -0.000000  -2.680736  -0.000000
Au   4.499095  -0.000000  -0.000000
Au  -4.499095  -0.000000  -0.000000
Au   2.266159   3.943681  -0.000000
Au  -2.266159  -3.943681  -0.000000
Au  -2.266159   3.943681  -0.000000
Au   2.266159  -3.943681   0.000000
Au  -2.172174  -1.288734   0.000000
Au   2.172174   1.288734  -0.000000
Au   2.172174  -1.288734  -0.000000
Au  -2.172174   1.288734  -0.000000
Au  -4.461220  -2.579595   0.000000
Au   4.461220   2.579595  -0.000000
Au   4.461220  -2.579595  -0.000000
Au  -4.461220   2.579595   0.000000
