20
-1543.65243100
Au  -0.000000  -1.325303   0.000000
Au  -0.000000   1.325586  -0.000000
Au  -0.000000  -3.895216  -0.000000
Au  -0.000000   3.895370   0.000000
Au  -4.776990  -0.000054  -0.000000
Au   4.776990  -0.000054   0.000000
Au   2.218718   0.000164  -0.000000
Au  -2.218718   0.000164  -0.000000
Au   1.290099   6.121130  -0.000000
Au  -1.290093  -6.121190  -0.000000
Au  -1.290099   6.121130  -0.000000
Au   1.290093  -6.121190   0.000000
Au   2.672426  -8.295598   0.000000
Au  -2.672340   8.295469  -0.000000
Au  -2.672426  -8.295598  -0.000000
Au   2.672340   8.295469   0.000000
Au   3.882048   6.025954   0.000000
Au  -3.882021  -6.026093  -0.000000
Au  -3.882048   6.025954   0.000000
Au   3.882021  -6.026093   0.000000
