20
-1551.34654400
Au   0.000000  -3.978871   0.000000
Au   0.000000   3.978871   0.000000
Au   0.000000  -1.306873  -0.000000
Au   0.000000   1.306873  -0.000000
Au  -4.857942   0.000000   0.000000
Au   4.857942   0.000000   0.000000
Au   2.265808   0.000000  -0.000000
Au  -2.265808  -0.000000  -0.000000
Au   2.317475  -5.186999  -0.000000
Au  -2.317475   5.186999  -0.000000
Au  -2.317475  -5.186999   0.000000
Au   2.317475   5.186999   0.000000
Au  -2.252187   2.590340  -0.000000
Au   2.252187  -2.590340  -0.000000
Au   2.252187   2.590340  -0.000000
Au  -2.252187  -2.590340  -0.000000
Au   4.829970   2.569675   0.000000
Au  -4.829970  -2.569675  -0.000000
Au  -4.829970   2.569675   0.000000
Au   4.829970  -2.569675   0.000000
