20
-1550.77865900
Au   0.000000  -0.000000  -2.277205
Au  -0.000000   0.000000   2.277205
Au  -0.000000  -0.000000  -4.867221
Au   0.000000  -0.000000   4.867221
Au   0.000000  -2.238301  -0.000000
Au  -0.000000   2.238301   0.000000
Au   1.277187   0.000000  -0.000000
Au  -1.277187   0.000000   0.000000
Au   3.543074   1.298175   0.000000
Au  -3.543074  -1.298175  -0.000000
Au  -3.543074   1.298175  -0.000000
Au   3.543074  -1.298175   0.000000
Au  -2.229473  -3.539469   0.000000
Au   2.229473   3.539469  -0.000000
Au   2.229473  -3.539469  -0.000000
Au  -2.229473   3.539469   0.000000
Au   2.710565   0.000000   2.189715
Au  -2.710565   0.000000   2.189715
Au  -2.710565  -0.000000  -2.189715
Au   2.710565  -0.000000  -2.189715
