20
-1552.23262400
Au   0.000003   0.000000  -3.872026
Au  -0.000003   0.000000   3.872026
Au  -0.000000   0.000000  -1.295822
Au   0.000000   0.000000   1.295831
Au   0.000000   3.193057  -0.000001
Au  -0.000000  -3.193057  -0.000001
Au   4.094110   0.000000  -0.000001
Au  -4.094110   0.000000  -0.000000
Au  -1.852485  -1.350984   0.000001
Au   1.852485   1.350984   0.000000
Au   1.852485  -1.350984   0.000000
Au  -1.852485   1.350984   0.000001
Au   5.000049   0.000000  -2.434040
Au  -5.000050   0.000000  -2.434039
Au  -5.000050   0.000000   2.434036
Au   5.000051   0.000000   2.434036
Au   2.402093   0.000000  -2.274291
Au  -2.402094   0.000000  -2.274290
Au  -2.402091   0.000000   2.274290
Au   2.402091   0.000000   2.274289
