20
-1550.09691700
Au   0.000000  -0.000000  -3.885359
Au   0.000000  -0.000000   3.885359
Au   0.000000   0.000000   1.280184
Au   0.000000  -0.000000  -1.280184
Au  -0.000000   4.196899   0.000000
Au  -0.000000  -4.196899   0.000000
Au  -2.975692  -0.000000  -0.000000
Au   2.975692   0.000000   0.000000
Au  -1.308109   1.964947   0.000000
Au   1.308109  -1.964947   0.000000
Au   1.308109   1.964947  -0.000000
Au  -1.308109  -1.964947   0.000000
Au   2.254693   0.000000  -2.532060
Au  -2.254693  -0.000000  -2.532060
Au  -2.254693  -0.000000   2.532060
Au   2.254693  -0.000000   2.532060
Au   4.552545   0.000000  -3.699539
Au  -4.552545   0.000000  -3.699539
Au  -4.552545  -0.000000   3.699539
Au   4.552545  -0.000000   3.699539
