20
-1551.79045800
Au  -0.000000   0.000000   1.303710
Au   0.000000  -0.000000  -1.303710
Au   0.000000  -0.000000  -3.955767
Au  -0.000000   0.000000   3.955767
Au  -0.000000  -2.249301   0.000000
Au   0.000000   2.249301  -0.000000
Au   2.229340  -0.000000   0.000000
Au  -2.229340   0.000000  -0.000000
Au   2.234604   0.000000  -5.289570
Au  -2.234604  -0.000000  -5.289570
Au  -2.234604   0.000000   5.289570
Au   2.234604   0.000000   5.289570
Au   4.492936  -0.000000  -1.297133
Au  -4.492936  -0.000000  -1.297133
Au  -4.492936   0.000000   1.297133
Au   4.492936  -0.000000   1.297133
Au   2.283245  -0.000000  -2.672127
Au  -2.283245  -0.000000  -2.672127
Au  -2.283245   0.000000   2.672127
Au   2.283245   0.000000   2.672127
