20
-1552.28784400
Au   0.000000   0.000000  -5.262127
Au   0.000000   0.000000   5.262127
Au   0.000000   0.000000  -2.617743
Au   0.000000   0.000000   2.617743
Au   0.000000   1.276887   0.000000
Au   0.000000  -1.276887  -0.000000
Au   4.506258   0.000000  -0.000000
Au  -4.506258  -0.000000   0.000000
Au   2.253720   0.000000  -3.960627
Au  -2.253720   0.000000  -3.960627
Au  -2.253720   0.000000   3.960627
Au   2.253720   0.000000   3.960627
Au  -2.198582  -0.000000   1.293162
Au   2.198582   0.000000   1.293162
Au   2.198582   0.000000  -1.293162
Au  -2.198582  -0.000000  -1.293162
Au   4.473887   0.000000  -2.593234
Au  -4.473887  -0.000000  -2.593234
Au  -4.473887  -0.000000   2.593234
Au   4.473887  -0.000000   2.593234
