20
-1548.34334500
Au  -0.000000  -0.000000  -2.254584
Au  -0.000000  -0.000000   2.254584
Au   0.000000   0.000000  -4.816011
Au   0.000000   0.000000   4.816011
Au   3.914458  -0.000000  -0.000000
Au  -3.914458  -0.000000  -0.000000
Au   1.288196   0.000000  -0.000000
Au  -1.288196   0.000000  -0.000000
Au   1.293112  -2.764303   0.000000
Au  -1.293112   2.764303   0.000000
Au  -1.293112  -2.764303   0.000000
Au   1.293112   2.764303   0.000000
Au  -3.870481  -2.569613   0.000000
Au   3.870481   2.569613  -0.000000
Au   3.870481  -2.569613   0.000000
Au  -3.870481   2.569613   0.000000
Au  -2.583593   0.000000   2.272006
Au   2.583593  -0.000000   2.272006
Au   2.583593  -0.000000  -2.272006
Au  -2.583593   0.000000  -2.272006
