20
-1552.99881400
Au  -0.000000   0.000000   3.919341
Au   0.000000   0.000000  -3.919341
Au  -0.000000  -0.000000  -1.291157
Au   0.000000   0.000000   1.291157
Au  -6.782587  -0.000000   0.000000
Au   6.782587  -0.000000  -0.000000
Au   2.289111  -0.000000  -0.000000
Au  -2.289111   0.000000  -0.000000
Au   4.541129   0.000000   1.368235
Au  -4.541129  -0.000000   1.368235
Au  -4.541129  -0.000000  -1.368235
Au   4.541129  -0.000000  -1.368235
Au  -6.866153  -0.000000   2.564858
Au   6.866153  -0.000000   2.564858
Au   6.866153   0.000000  -2.564858
Au  -6.866153   0.000000  -2.564858
Au  -2.262688  -0.000000   2.641118
Au   2.262688   0.000000   2.641118
Au   2.262688   0.000000  -2.641118
Au  -2.262688  -0.000000  -2.641118
