20
-1549.65475900
Au  -0.000000  -0.000000   2.293920
Au   0.000000   0.000000  -2.293920
Au  -0.000000   1.329856   0.000000
Au   0.000000  -1.329856  -0.000000
Au  -0.000000  -3.990417   0.000000
Au  -0.000000   3.990417  -0.000000
Au   2.299143  -0.000000  -0.000000
Au  -2.299143   0.000000   0.000000
Au   2.278985   2.633730   0.000000
Au  -2.278985  -2.633730  -0.000000
Au  -2.278985   2.633730  -0.000000
Au   2.278985  -2.633730   0.000000
Au   2.277654   5.231753  -0.000000
Au  -2.277654  -5.231753   0.000000
Au  -2.277654   5.231753   0.000000
Au   2.277654  -5.231753  -0.000000
Au   2.578064  -0.000000   2.574094
Au  -2.578064   0.000000   2.574094
Au  -2.578064   0.000000  -2.574094
Au   2.578064   0.000000  -2.574094
