20
-1548.47205500
Au   0.000000  -0.000000   2.282084
Au   0.000000   0.000000  -2.282084
Au   0.000000   1.322534   0.000000
Au   0.000000  -1.322534   0.000000
Au   0.000000   3.924910   0.000000
Au   0.000000  -3.924910   0.000000
Au   2.244291   0.000000   0.000000
Au  -2.244291  -0.000000   0.000000
Au   2.269561  -2.619794   0.000000
Au  -2.269561   2.619794   0.000000
Au  -2.269561  -2.619794   0.000000
Au   2.269561   2.619794   0.000000
Au   4.000311   0.000000   4.708269
Au  -4.000311  -0.000000   4.708269
Au  -4.000311  -0.000000  -4.708269
Au   4.000311   0.000000  -4.708269
Au  -2.589219  -0.000000   2.573240
Au   2.589219   0.000000   2.573240
Au   2.589219   0.000000  -2.573240
Au  -2.589219  -0.000000  -2.573240
