20
-1551.01516500
Au  -0.000000   0.000000  -2.466859
Au   0.000000  -0.000000   2.466859
Au  -0.000000  -3.836880  -0.000000
Au  -0.000000   3.836880  -0.000000
Au  -0.000000   1.262322   0.000000
Au  -0.000000  -1.262322   0.000000
Au   4.572925  -0.000000  -0.000000
Au  -4.572925   0.000000  -0.000000
Au   2.326198  -2.416830  -0.000000
Au  -2.326198   2.416830  -0.000000
Au  -2.326198  -2.416830  -0.000000
Au   2.326198   2.416830  -0.000000
Au  -4.604708   0.000000   2.567489
Au   4.604708   0.000000   2.567489
Au   4.604708  -0.000000  -2.567489
Au  -4.604708   0.000000  -2.567489
Au   2.298807  -0.000000  -1.306409
Au  -2.298807  -0.000000  -1.306409
Au  -2.298807   0.000000   1.306409
Au   2.298807   0.000000   1.306409
