20
-1552.07364800
Au   0.024987  -0.295975  -2.546463
Au  -0.000060   0.210547   2.043214
Au   0.071563   0.121099   4.640302
Au   0.156901  -0.524663  -5.128982
Au  -3.838422   0.478363  -0.383015
Au   3.831039  -0.525864  -0.309052
Au   0.698100  -4.394866  -0.049564
Au  -0.872756   4.545765   0.777149
Au   1.255879  -0.082547  -0.236473
Au  -1.264586   0.337469  -0.272370
Au   0.353813   2.307624   0.360742
Au  -0.397993  -2.096783  -0.521257
Au   2.932129   1.872817   0.258182
Au  -2.808080  -1.815674   0.448438
Au  -2.686294   0.268276   2.016270
Au   2.639266  -0.182200   2.003085
Au  -2.447457   2.486158   0.630032
Au   2.198470  -2.382322   0.594744
Au   2.655596   0.775167  -2.258977
Au  -2.502093  -1.102391  -2.066005
