20
-1551.74948400
Au  -0.000000   0.000000   2.275491
Au   0.000000   0.000000  -2.275491
Au  -0.000000  -2.288292   0.000000
Au  -0.000000   2.288292  -0.000000
Au   4.022258  -0.000000  -0.000000
Au  -4.022258  -0.000000  -0.000000
Au   1.303162  -0.000000  -0.000000
Au  -1.303162  -0.000000   0.000000
Au  -5.224228   2.314621  -0.000000
Au   5.224228  -2.314621  -0.000000
Au   5.224228   2.314621   0.000000
Au  -5.224228  -2.314621  -0.000000
Au  -2.631366   2.245685   0.000000
Au   2.631366  -2.245685  -0.000000
Au   2.631366   2.245685  -0.000000
Au  -2.631366  -2.245685   0.000000
Au  -2.619002   0.000000  -2.254296
Au   2.619002  -0.000000  -2.254296
Au   2.619002   0.000000   2.254296
Au  -2.619002   0.000000   2.254296
