20
-1553.10322500
Au  -0.000000  -0.000000   2.256230
Au   0.000000   0.000000  -2.256230
Au   0.000000   2.266374  -0.000000
Au   0.000000  -2.266374   0.000000
Au  -1.330342   0.000000   0.000000
Au   1.330342   0.000000   0.000000
Au  -3.962666   0.000000   0.000000
Au   3.962666   0.000000   0.000000
Au   2.674271   2.279978  -0.000000
Au  -2.674271  -2.279978  -0.000000
Au  -2.674271   2.279978  -0.000000
Au   2.674271  -2.279978  -0.000000
Au  -1.310118  -4.531284   0.000000
Au   1.310118   4.531284   0.000000
Au   1.310118  -4.531284   0.000000
Au  -1.310118   4.531284   0.000000
Au  -2.619261  -0.000000   2.248458
Au   2.619261  -0.000000   2.248458
Au   2.619261  -0.000000  -2.248458
Au  -2.619261  -0.000000  -2.248458
