20
-1553.10322700
Au   0.000000  -0.000000  -2.256330
Au  -0.000000  -0.000000   2.256330
Au  -0.000000  -2.266114  -0.000000
Au  -0.000000   2.266114  -0.000000
Au  -1.330366   0.000000   0.000000
Au   1.330366   0.000000  -0.000000
Au  -3.962961   0.000000  -0.000000
Au   3.962961   0.000000  -0.000000
Au   1.310070   4.531001  -0.000000
Au  -1.310070  -4.531001  -0.000000
Au  -1.310070   4.531001  -0.000000
Au   1.310070  -4.531001  -0.000000
Au  -2.674354  -2.280007  -0.000000
Au   2.674354   2.280007  -0.000000
Au   2.674354  -2.280007  -0.000000
Au  -2.674354   2.280007  -0.000000
Au  -2.619539  -0.000000  -2.248470
Au   2.619539  -0.000000  -2.248470
Au   2.619539  -0.000000   2.248470
Au  -2.619539  -0.000000   2.248470
