20
-1551.74948800
Au  -0.000000  -0.000000  -2.288282
Au   0.000000   0.000000   2.288282
Au  -0.000000  -2.275501  -0.000000
Au   0.000000   2.275501   0.000000
Au   1.303250   0.000000   0.000000
Au  -1.303250  -0.000000  -0.000000
Au   4.022638  -0.000000   0.000000
Au  -4.022638   0.000000  -0.000000
Au   2.619168   2.253907  -0.000000
Au  -2.619168  -2.253907   0.000000
Au  -2.619168   2.253907   0.000000
Au   2.619168  -2.253907  -0.000000
Au  -5.224670   0.000000   2.314537
Au   5.224670  -0.000000   2.314537
Au   5.224670  -0.000000  -2.314537
Au  -5.224670   0.000000  -2.314537
Au   2.631773   0.000000  -2.245779
Au  -2.631773  -0.000000  -2.245779
Au  -2.631773  -0.000000   2.245779
Au   2.631773   0.000000   2.245779
