20
-1551.37130700
Au  -0.000000   0.000000  -2.248962
Au   0.000000  -0.000000   2.248962
Au   0.000000  -2.244897  -0.000000
Au  -0.000000   2.244897  -0.000000
Au   1.321998   0.000000  -0.000000
Au  -1.321998   0.000000  -0.000000
Au  -3.940437   0.000000  -0.000000
Au   3.940437  -0.000000  -0.000000
Au  -2.655304  -0.000000   2.266126
Au   2.655304  -0.000000   2.266126
Au   2.655304   0.000000  -2.266126
Au  -2.655304   0.000000  -2.266126
Au  -1.291112   0.000000   7.064726
Au   1.291112  -0.000000   7.064726
Au   1.291112  -0.000000  -7.064726
Au  -1.291112  -0.000000  -7.064726
Au   1.316754   0.000000  -4.490499
Au  -1.316754   0.000000  -4.490499
Au  -1.316754  -0.000000   4.490499
Au   1.316754  -0.000000   4.490499
