20
-1551.11542800
Au  -0.000012   0.000135   1.291899
Au  -0.000249   0.000015  -1.291891
Au  -0.000562  -0.000019  -3.900087
Au   0.000261   0.000247   3.900079
Au   4.684324   1.049373   0.001273
Au  -4.684492  -1.049777  -0.001281
Au  -1.005995   4.693251   0.000364
Au   1.006286  -4.692899  -0.000340
Au  -2.125844  -0.805939   0.000326
Au   2.125636   0.805829  -0.000314
Au   0.154221  -2.268027   0.000056
Au  -0.154161   2.268238  -0.000082
Au   2.120483   0.873146   2.623838
Au  -2.120047  -0.873283   2.624422
Au  -0.090866   2.291254   2.624115
Au   0.091509  -2.290935   2.624248
Au  -0.091231   2.291090  -2.624327
Au   0.091143  -2.291107  -2.624029
Au   2.120067   0.872916  -2.624405
Au  -2.120471  -0.873507  -2.623862
