20
-1550.00168100
Au   0.000000   4.466403   0.000000
Au   0.000000  -4.466403   0.000000
Au   0.000000  -1.900165   0.000000
Au   0.000000   1.900165  -0.000000
Au  -3.562272  -0.000000  -0.000000
Au   3.562272  -0.000000  -0.000000
Au  -6.115045   0.000000  -0.000000
Au   6.115045   0.000000   0.000000
Au   1.304752  -0.000000  -1.317484
Au  -1.304752  -0.000000  -1.317484
Au  -1.304752  -0.000000   1.317484
Au   1.304752   0.000000   1.317484
Au  -1.304371   0.000000  -3.931828
Au   1.304371  -0.000000  -3.931828
Au   1.304371   0.000000   3.931828
Au  -1.304371   0.000000   3.931828
Au  -3.556136  -0.000000  -2.606165
Au   3.556136  -0.000000  -2.606165
Au   3.556136   0.000000   2.606165
Au  -3.556136   0.000000   2.606165
