20
-1552.19035000
Au   0.000000  -0.000000  -1.283504
Au   0.000000  -0.000000   1.283504
Au   0.000000  -0.000000  -3.858054
Au   0.000000  -0.000000   3.858054
Au  -4.098285  -1.401722   0.000000
Au   4.098285   1.401722   0.000000
Au  -1.470025  -4.073720   0.000000
Au   1.470025   4.073720   0.000000
Au  -2.338882   0.517685   0.000000
Au   2.338882  -0.517685   0.000000
Au   0.478494  -2.346723   0.000000
Au  -0.478494   2.346723   0.000000
Au  -1.877485  -1.845937  -1.325466
Au   1.877485   1.845937  -1.325466
Au   1.623110  -1.651693  -2.404861
Au  -1.623110   1.651693  -2.404861
Au   1.623110  -1.651693   2.404861
Au  -1.623110   1.651693   2.404861
Au  -1.877485  -1.845937   1.325466
Au   1.877485   1.845937   1.325466
