20
-1550.74036400
Au  -0.000000  -0.000000   1.285526
Au  -0.000000  -0.000000  -1.285526
Au  -0.000000  -0.000000   3.857318
Au  -0.000000  -0.000000  -3.857318
Au  -0.000000  -3.264343   0.000000
Au  -0.000000   3.264343   0.000000
Au   4.079583   0.000000   0.000000
Au  -4.079583   0.000000   0.000000
Au   1.837753   1.405965   0.000000
Au  -1.837753  -1.405965   0.000000
Au  -1.837753   1.405965   0.000000
Au   1.837753  -1.405965   0.000000
Au  -4.160388  -2.584882   0.000000
Au   4.160388   2.584882   0.000000
Au   4.160388  -2.584882   0.000000
Au  -4.160388   2.584882   0.000000
Au  -0.000000  -2.318311   2.455277
Au  -0.000000   2.318311   2.455277
Au  -0.000000  -2.318311  -2.455277
Au  -0.000000   2.318311  -2.455277
