20
-1552.03286300
Au  -0.000000  -0.000000  -3.841305
Au  -0.000000  -0.000000   3.841305
Au   0.000000   0.000000   1.262854
Au   0.000000  -0.000000  -1.262854
Au  -2.567434   0.000000   0.000000
Au   2.567434  -0.000000   0.000000
Au  -5.205844   0.000000  -0.000000
Au   5.205844   0.000000  -0.000000
Au  -3.906347  -2.253252   0.000000
Au   3.906347   2.253252  -0.000000
Au   3.906347  -2.253252  -0.000000
Au  -3.906347   2.253252  -0.000000
Au   1.287236   2.266117   0.000000
Au  -1.287236  -2.266117  -0.000000
Au  -1.287236   2.266117   0.000000
Au   1.287236  -2.266117  -0.000000
Au  -0.000000  -2.316905   2.392795
Au  -0.000000   2.316905   2.392795
Au  -0.000000  -2.316905  -2.392795
Au  -0.000000   2.316905  -2.392795
