20
-1549.84326300
Au  -0.000000  -0.000000   2.460289
Au   0.000000  -0.000000  -2.460289
Au   0.000000   0.000000   5.043731
Au   0.000000   0.000000  -5.043731
Au   1.273706   0.000000  -0.000000
Au  -1.273706   0.000000  -0.000000
Au  -3.856900   0.000000  -0.000000
Au   3.856900   0.000000  -0.000000
Au  -1.309318  -4.148050   0.000000
Au   1.309318   4.148050   0.000000
Au   1.309318  -4.148050   0.000000
Au  -1.309318   4.148050  -0.000000
Au   0.000000  -2.303549  -3.884597
Au   0.000000   2.303549  -3.884597
Au  -0.000000  -2.303549   3.884597
Au  -0.000000   2.303549   3.884597
Au  -0.000000  -2.281862  -1.287385
Au   0.000000   2.281862  -1.287385
Au  -0.000000  -2.281862   1.287385
Au   0.000000   2.281862   1.287385
