20
-1548.66752300
Au   0.000000  -0.000000   3.938281
Au  -0.000000  -0.000000  -3.938281
Au  -0.000000   0.000000  -1.331009
Au   0.000000   0.000000   1.331009
Au  -4.819992  -0.000000  -0.000000
Au   4.819992   0.000000   0.000000
Au   2.262697  -0.000000  -0.000000
Au  -2.262697  -0.000000   0.000000
Au  -2.241261   2.591601  -0.000000
Au   2.241261  -2.591601  -0.000000
Au   2.241261   2.591601  -0.000000
Au  -2.241261  -2.591601   0.000000
Au  -0.000000  -2.885958  -1.313669
Au   0.000000   2.885958  -1.313669
Au   0.000000  -2.885958   1.313669
Au   0.000000   2.885958   1.313669
Au   0.000000   2.568802  -3.882914
Au  -0.000000  -2.568802  -3.882914
Au  -0.000000   2.568802   3.882914
Au  -0.000000  -2.568802   3.882914
