20
-1553.10322100
Au  -0.000000   0.000000   2.265756
Au   0.000000   0.000000  -2.265756
Au  -0.000000   3.963487   0.000000
Au   0.000000  -3.963487  -0.000000
Au   0.000000   1.330631  -0.000000
Au  -0.000000  -1.330631  -0.000000
Au   2.255935   0.000000   0.000000
Au  -2.255935  -0.000000   0.000000
Au   2.248441  -2.619544   0.000000
Au  -2.248441   2.619544  -0.000000
Au  -2.248441  -2.619544  -0.000000
Au   2.248441   2.619544   0.000000
Au   0.000000   2.674087   2.279663
Au   0.000000  -2.674087   2.279663
Au   0.000000   2.674087  -2.279663
Au  -0.000000  -2.674087  -2.279663
Au   0.000000  -1.309949   4.530652
Au  -0.000000   1.309949   4.530652
Au   0.000000  -1.309949  -4.530652
Au   0.000000   1.309949  -4.530652
