20
-1550.48725600
Au  -0.000000   0.000000   6.149238
Au   0.000000  -0.000000  -6.149238
Au  -0.000000  -6.190071   0.000000
Au   0.000000   6.190071   0.000000
Au  -0.000000  -3.608397   0.000000
Au  -0.000000   3.608397  -0.000000
Au   1.862133  -0.000000   0.000000
Au  -1.862133  -0.000000  -0.000000
Au   0.000000  -1.313421   1.324830
Au  -0.000000   1.313421   1.324830
Au   0.000000  -1.313421  -1.324830
Au   0.000000   1.313421  -1.324830
Au   0.000000   1.361713  -3.962043
Au   0.000000  -1.361713  -3.962043
Au  -0.000000   1.361713   3.962043
Au  -0.000000  -1.361713   3.962043
Au   0.000000  -3.574169  -2.619880
Au   0.000000   3.574169  -2.619880
Au  -0.000000  -3.574169   2.619880
Au   0.000000   3.574169   2.619880
