20
-1551.79045600
Au   0.000000  -0.000000  -2.229427
Au   0.000000   0.000000   2.229427
Au   0.000000  -1.303612   0.000000
Au   0.000000   1.303612   0.000000
Au  -0.000000   3.954998   0.000000
Au  -0.000000  -3.954998   0.000000
Au   2.249214  -0.000000   0.000000
Au  -2.249214  -0.000000   0.000000
Au  -0.000000  -5.289459   2.234310
Au   0.000000   5.289459   2.234310
Au   0.000000  -5.289459  -2.234310
Au  -0.000000   5.289459  -2.234310
Au   0.000000  -1.297095  -4.493289
Au   0.000000   1.297095  -4.493289
Au  -0.000000  -1.297095   4.493289
Au  -0.000000   1.297095   4.493289
Au  -0.000000  -2.672003  -2.283529
Au  -0.000000   2.672003  -2.283529
Au  -0.000000  -2.672003   2.283529
Au   0.000000   2.672003   2.283529
