20
-1551.79045800
Au  -0.000000  -0.000000   2.229262
Au   0.000000   0.000000  -2.229262
Au  -0.000000   3.955697  -0.000000
Au  -0.000000  -3.955697   0.000000
Au  -0.000000   1.303803  -0.000000
Au   0.000000  -1.303803  -0.000000
Au   2.249331   0.000000   0.000000
Au  -2.249331  -0.000000   0.000000
Au   0.000000  -1.297032  -4.492928
Au   0.000000   1.297032  -4.492928
Au  -0.000000  -1.297032   4.492928
Au  -0.000000   1.297032   4.492928
Au  -0.000000  -5.289515   2.234535
Au   0.000000   5.289515   2.234535
Au   0.000000  -5.289515  -2.234535
Au   0.000000   5.289515  -2.234535
Au  -0.000000   2.671976   2.283134
Au  -0.000000  -2.671976   2.283134
Au   0.000000   2.671976  -2.283134
Au   0.000000  -2.671976  -2.283134
