20
-1547.89843000
Au  -0.000000  -0.000000   1.882624
Au  -0.000000  -0.000000  -1.882624
Au  -0.000000   0.000000  -4.448223
Au  -0.000000   0.000000   4.448223
Au   1.846962  -0.000000  -0.000000
Au  -1.846962   0.000000   0.000000
Au  -0.000000   1.846962   0.000000
Au   0.000000  -1.846962  -0.000000
Au  -4.406132  -0.000000  -0.000000
Au   4.406132   0.000000  -0.000000
Au  -0.000000  -4.406132  -0.000000
Au   0.000000   4.406132   0.000000
Au  -4.380324   2.560978   0.000000
Au   4.380324  -2.560978   0.000000
Au  -2.560978  -4.380324   0.000000
Au   2.560978   4.380324  -0.000000
Au   4.380325   2.560978  -0.000000
Au  -4.380325  -2.560978  -0.000000
Au   2.560978  -4.380324   0.000000
Au  -2.560978   4.380324  -0.000000
