20
-1551.61838800
Au  -0.000000   0.000000  -4.500435
Au  -0.000000  -0.000000   4.500435
Au   0.000000   2.679084  -0.000000
Au   0.000000  -2.679084   0.000000
Au  -3.863518   0.000000   0.000000
Au   3.863518  -0.000000   0.000000
Au   1.276629  -0.000000   0.000000
Au  -1.276629   0.000000   0.000000
Au   0.000000   2.579679  -4.461279
Au  -0.000000  -2.579679  -4.461279
Au  -0.000000   2.579679   4.461279
Au  -0.000000  -2.579679   4.461279
Au   0.000000  -3.943215  -2.265636
Au   0.000000   3.943215  -2.265636
Au   0.000000  -3.943215   2.265636
Au   0.000000   3.943215   2.265636
Au   0.000000   1.288506  -2.172967
Au   0.000000  -1.288506  -2.172967
Au   0.000000   1.288506   2.172967
Au  -0.000000  -1.288506   2.172967
