20
-1546.98046800
Au   0.000000  -1.283041   0.000000
Au   0.000000   1.283041  -0.000000
Au  -0.000000   3.880646  -0.000000
Au  -0.000000  -3.880646   0.000000
Au   2.215679  -0.000000   0.000000
Au  -2.215679  -0.000000  -0.000000
Au   4.794750   0.000000   0.000000
Au  -4.794750   0.000000  -0.000000
Au   3.506447  -2.244593   0.000000
Au  -3.506447   2.244593  -0.000000
Au  -3.506447  -2.244593  -0.000000
Au   3.506447   2.244593   0.000000
Au   0.000000  -1.292857   2.758214
Au   0.000000   1.292857   2.758214
Au  -0.000000  -1.292857  -2.758214
Au  -0.000000   1.292857  -2.758214
Au  -0.000000   3.873000   2.570198
Au  -0.000000  -3.873000   2.570198
Au   0.000000   3.873000  -2.570198
Au   0.000000  -3.873000  -2.570198
