20
-1549.89152400
Au  -0.000000  -0.000000  -3.936379
Au   0.000000  -0.000000   3.936379
Au  -0.000000  -0.000000   1.289932
Au  -0.000000   0.000000  -1.289932
Au  -2.364230   0.000020  -0.000000
Au   2.364230  -0.000020  -0.000000
Au   0.000022  -2.383838  -0.000000
Au  -0.000022   2.383838  -0.000000
Au  -2.578682  -2.609654  -0.000000
Au   2.578682   2.609654  -0.000000
Au   2.578739  -2.609721  -0.000000
Au  -2.578739   2.609721  -0.000000
Au  -2.259374   0.000136  -2.652134
Au   2.259374  -0.000136  -2.652134
Au   0.000140  -2.254835  -2.613176
Au  -0.000140   2.254835  -2.613176
Au   2.259374  -0.000136   2.652134
Au  -2.259374   0.000136   2.652134
Au   0.000140  -2.254835   2.613176
Au  -0.000140   2.254835   2.613176
