20
-1547.09459800
Au   0.000000  -3.890034   0.000000
Au  -0.000000   3.890034  -0.000000
Au  -0.000000  -1.293481  -0.000000
Au   0.000000   1.293481  -0.000000
Au  -2.258097   0.000000  -0.000000
Au   2.258097  -0.000000   0.000000
Au  -4.817506  -0.000000   0.000000
Au   4.817506   0.000000   0.000000
Au  -0.000000  -5.117813   2.293353
Au   0.000000   5.117813   2.293353
Au  -0.000000  -5.117813  -2.293353
Au   0.000000   5.117813  -2.293353
Au   0.000000  -2.542868   2.246401
Au  -0.000000   2.542868   2.246401
Au   0.000000  -2.542868  -2.246401
Au  -0.000000   2.542868  -2.246401
Au  -0.000000   1.289411  -4.496010
Au   0.000000  -1.289411  -4.496010
Au  -0.000000   1.289411   4.496010
Au   0.000000  -1.289411   4.496010
