20
-1547.93670000
Au  -0.000000  -0.000000  -4.834618
Au   0.000000  -0.000000   4.834618
Au   0.000000  -0.000000  -2.272271
Au  -0.000000  -0.000000   2.272271
Au   0.000000  -4.666239   0.000000
Au   0.000000   4.666239  -0.000000
Au  -1.308745   0.000000   0.000000
Au   1.308745   0.000000  -0.000000
Au   2.246889   2.438800   0.000000
Au  -2.246889  -2.438800   0.000000
Au  -2.246889   2.438800   0.000000
Au   2.246889  -2.438800   0.000000
Au   2.562811   0.000000  -2.278478
Au  -2.562811   0.000000  -2.278478
Au  -2.562811   0.000000   2.278478
Au   2.562811   0.000000   2.278478
Au  -0.000000  -2.432798   1.345110
Au  -0.000000   2.432798   1.345110
Au  -0.000000  -2.432798  -1.345110
Au   0.000000   2.432798  -1.345110
