20
-1547.73902400
Au   0.000000   0.000000   3.972607
Au   0.000000   0.000000  -3.972607
Au   0.000000   0.000000  -1.375189
Au   0.000000   0.000000   1.375189
Au   0.000000  -2.153732  -0.000000
Au  -0.000000   2.153732  -0.000000
Au   2.199244  -0.000000  -0.000000
Au  -2.199244   0.000000   0.000000
Au   3.495748   0.000000   7.574284
Au  -3.495748   0.000000   7.574284
Au  -3.495748   0.000000  -7.574284
Au   3.495748   0.000000  -7.574284
Au  -1.300657   0.000000   6.232567
Au   1.300657   0.000000   6.232567
Au   1.300657   0.000000  -6.232567
Au  -1.300657   0.000000  -6.232567
Au   0.000000  -2.248271  -2.599010
Au  -0.000000   2.248271  -2.599010
Au   0.000000  -2.248271   2.599010
Au  -0.000000   2.248271   2.599010
