20
-1553.10322500
Au   0.000000  -0.000000  -3.963285
Au  -0.000000   0.000000   3.963285
Au   0.000000   0.000000   1.330425
Au   0.000000  -0.000000  -1.330425
Au   0.000000   2.266033  -0.000000
Au   0.000000  -2.266033   0.000000
Au  -2.256361   0.000000  -0.000000
Au   2.256361   0.000000  -0.000000
Au  -2.248289  -0.000000   2.619524
Au   2.248289   0.000000   2.619524
Au   2.248289   0.000000  -2.619524
Au  -2.248289  -0.000000  -2.619524
Au  -0.000000  -4.530756   1.310109
Au   0.000000   4.530756   1.310109
Au   0.000000  -4.530756  -1.310109
Au   0.000000   4.530756  -1.310109
Au  -0.000000  -2.279669  -2.674073
Au   0.000000   2.279669  -2.674073
Au  -0.000000  -2.279669   2.674073
Au   0.000000   2.279669   2.674073
