20
-1547.97917000
Au  -0.000000  -0.000000   1.299297
Au  -0.000000  -0.000000  -1.299297
Au  -0.000000  -0.000000   3.896028
Au   0.000000   0.000000  -3.896028
Au  -2.346211   0.000000  -0.000000
Au   2.346211  -0.000000  -0.000000
Au   4.938253   0.000000   0.000000
Au  -4.938253  -0.000000   0.000000
Au   2.226725   2.579468  -0.000000
Au  -2.226725  -2.579468   0.000000
Au  -2.226725   2.579468   0.000000
Au   2.226725  -2.579468   0.000000
Au   2.273336   0.000000  -2.633753
Au  -2.273336   0.000000  -2.633753
Au  -2.273336  -0.000000   2.633753
Au   2.273336  -0.000000   2.633753
Au  -0.000000   2.606920  -1.360232
Au   0.000000  -2.606920  -1.360232
Au   0.000000   2.606920   1.360232
Au   0.000000  -2.606920   1.360232
