20
-1547.97916100
Au   0.000000   0.000000  -2.345226
Au  -0.000000   0.000000   2.345226
Au  -0.000000  -0.000000   4.937142
Au  -0.000000  -0.000000  -4.937142
Au  -3.896447  -0.000000  -0.000000
Au   3.896447   0.000000   0.000000
Au   1.299419   0.000000  -0.000000
Au  -1.299419  -0.000000   0.000000
Au  -1.359574  -2.606876   0.000000
Au   1.359574   2.606876  -0.000000
Au   1.359574  -2.606876  -0.000000
Au  -1.359574   2.606876  -0.000000
Au  -2.634089   0.000000  -2.273201
Au   2.634089   0.000000  -2.273201
Au   2.634089  -0.000000   2.273201
Au  -2.634089  -0.000000   2.273201
Au   0.000000   2.579691  -2.227254
Au  -0.000000  -2.579691  -2.227254
Au   0.000000   2.579691   2.227254
Au   0.000000  -2.579691   2.227254
