20
-1552.34469100
Au  -0.000000  -0.000000   1.297858
Au   0.000000   0.000000  -1.297858
Au  -0.000000   4.874316  -0.000000
Au  -0.000000  -4.874316   0.000000
Au  -0.000000   2.274652   0.000000
Au   0.000000  -2.274652  -0.000000
Au  -2.278477   0.000000   0.000000
Au   2.278477  -0.000000  -0.000000
Au   2.196507   0.000000   2.658790
Au  -2.196507   0.000000   2.658790
Au  -2.196507   0.000000  -2.658790
Au   2.196507  -0.000000  -2.658790
Au   0.000000   1.314726  -3.554119
Au   0.000000  -1.314726  -3.554119
Au  -0.000000   1.314726   3.554119
Au  -0.000000  -1.314726   3.554119
Au   0.000000  -3.613272  -2.286928
Au   0.000000   3.613272  -2.286928
Au  -0.000000  -3.613272   2.286928
Au  -0.000000   3.613272   2.286928
