20
-1549.86558500
Au  -0.000000   0.000000  -2.220626
Au   0.000000  -0.000000   2.220626
Au   0.000000  -3.927901   0.000000
Au   0.000000   3.927901   0.000000
Au   0.000000  -1.322032   0.000000
Au  -0.000000   1.322032   0.000000
Au  -2.228685  -0.000000  -0.000000
Au   2.228685  -0.000000  -0.000000
Au  -4.461066  -0.000000  -1.307734
Au   4.461066   0.000000  -1.307734
Au   4.461066   0.000000   1.307734
Au  -4.461066  -0.000000   1.307734
Au   0.000000   1.297719  -4.483841
Au  -0.000000  -1.297719  -4.483841
Au  -0.000000   1.297719   4.483841
Au  -0.000000  -1.297719   4.483841
Au   0.000000  -2.676376   2.276142
Au   0.000000   2.676376   2.276142
Au  -0.000000  -2.676376  -2.276142
Au  -0.000000   2.676376  -2.276142
