20
-1549.89152500
Au  -0.000000   0.000000  -2.364500
Au   0.000000  -0.000000   2.364500
Au   0.000000  -2.384087  -0.000000
Au   0.000000   2.384087  -0.000000
Au   3.936550  -0.000000  -0.000000
Au  -3.936550   0.000000   0.000000
Au   1.289920  -0.000000   0.000000
Au  -1.289920   0.000000  -0.000000
Au   2.613267  -2.254892  -0.000000
Au  -2.613267   2.254892   0.000000
Au  -2.613267  -2.254892  -0.000000
Au   2.613267   2.254892   0.000000
Au   2.652176   0.000000   2.259407
Au  -2.652176   0.000000   2.259407
Au  -2.652176  -0.000000  -2.259407
Au   2.652176  -0.000000  -2.259407
Au  -0.000000  -2.609653   2.578584
Au  -0.000000   2.609653   2.578584
Au   0.000000  -2.609653  -2.578584
Au  -0.000000   2.609653  -2.578584
