20
-1549.47969500
Au   0.000000  -0.000000   3.664851
Au  -0.000000   0.000000  -3.664851
Au   0.000000  -1.970989   0.000000
Au   0.000000   1.970989   0.000000
Au  -6.213617   0.000000   0.000000
Au   6.213617   0.000000  -0.000000
Au  -3.609020   0.000000  -0.000000
Au   3.609020  -0.000000   0.000000
Au   3.556864  -0.000000   2.597475
Au  -3.556864   0.000000   2.597475
Au  -3.556864  -0.000000  -2.597475
Au   3.556864  -0.000000  -2.597475
Au  -1.273624   0.000000  -1.357673
Au   1.273624  -0.000000  -1.357672
Au   1.273624  -0.000000   1.357673
Au  -1.273624   0.000000   1.357672
Au  -0.000000   2.300635   2.543851
Au  -0.000000  -2.300635   2.543851
Au   0.000000   2.300635  -2.543851
Au   0.000000  -2.300635  -2.543851
