20
-1545.13693600
Au  -0.000000   0.000000   4.459428
Au   0.000000  -0.000000  -4.459428
Au   0.000000  -0.000000   1.894655
Au  -0.000000   0.000000  -1.894655
Au  -1.413562  -1.413255   0.000000
Au   1.413562   1.413255   0.000000
Au   1.328515  -1.328598   0.000000
Au  -1.328515   1.328598  -0.000000
Au  -3.285984  -3.286501   0.000000
Au   3.285984   3.286501   0.000000
Au   3.165416  -3.165547   0.000000
Au  -3.165416   3.165547   0.000000
Au  -2.585933  -0.087408   1.904483
Au   2.585933   0.087408   1.904483
Au  -0.087574  -2.586026   1.904390
Au   0.087574   2.586026   1.904390
Au   2.585933   0.087408  -1.904483
Au  -2.585933  -0.087408  -1.904483
Au  -0.087574  -2.586026  -1.904390
Au   0.087574   2.586026  -1.904390
