20
-1552.29159400
Au  -0.000002  -0.000000   4.361093
Au   0.000002   0.000000  -4.361106
Au   0.000000  -1.302383   0.000000
Au   0.000000   1.302383   0.000000
Au  -2.740853   0.000000  -0.000038
Au   2.740853  -0.000000  -0.000004
Au   5.345575   0.000000   0.000000
Au  -5.345575  -0.000000  -0.000001
Au  -1.350109  -0.000000   2.150267
Au   1.350122   0.000000   2.150251
Au   1.350128   0.000000  -2.150245
Au  -1.350141  -0.000000  -2.150229
Au   4.030322   0.000000   2.255746
Au  -4.030326  -0.000000   2.255752
Au  -4.030318  -0.000000  -2.255739
Au   4.030322   0.000000  -2.255745
Au   0.000001   2.167261  -2.627496
Au   0.000001  -2.167261  -2.627496
Au  -0.000001   2.167255   2.627495
Au  -0.000001  -2.167255   2.627495
