20
-1549.96529900
Au   0.000000  -0.000000   1.980515
Au  -0.000000   0.000000  -1.980515
Au   0.000000  -1.771349  -0.000000
Au  -0.000000   1.771349   0.000000
Au   4.539503   0.000000   0.000000
Au  -4.539503   0.000000  -0.000000
Au  -1.906805  -0.000000   0.000000
Au   1.906805   0.000000  -0.000000
Au   2.178827  -0.000000   4.568161
Au  -2.178827   0.000000   4.568161
Au  -2.178827  -0.000000  -4.568161
Au   2.178827  -0.000000  -4.568161
Au   3.278313   0.000000  -2.245961
Au  -3.278313   0.000000  -2.245961
Au  -3.278313   0.000000   2.245961
Au   3.278313   0.000000   2.245961
Au  -0.000000  -1.360162   4.210166
Au  -0.000000   1.360162   4.210166
Au   0.000000  -1.360162  -4.210166
Au   0.000000   1.360162  -4.210166
