20
-1549.91587700
Au   0.000000  -0.000000  -4.411426
Au  -0.000000  -0.000000   4.411426
Au  -0.000000   2.160808   0.000000
Au  -0.000000  -2.160808  -0.000000
Au   3.976855  -0.000000  -0.000000
Au  -3.976855  -0.000000   0.000000
Au   1.409495  -0.000000   0.000000
Au  -1.409495  -0.000000  -0.000000
Au   1.820642   0.000000   2.559337
Au  -1.820642   0.000000   2.559337
Au  -1.820642  -0.000000  -2.559337
Au   1.820642  -0.000000  -2.559337
Au  -0.000000   4.348486   1.355044
Au  -0.000000  -4.348486   1.355044
Au  -0.000000   4.348486  -1.355044
Au  -0.000000  -4.348486  -1.355044
Au  -0.000000   1.956853   2.623991
Au  -0.000000  -1.956853   2.623991
Au  -0.000000   1.956853  -2.623991
Au  -0.000000  -1.956853  -2.623991
