20
-1543.28397200
Au  -0.000000   1.337086  -0.000000
Au   0.000000  -1.337086   0.000000
Au   0.000000   3.925818   0.000000
Au  -0.000000  -3.925818   0.000000
Au   2.243810   0.000000  -0.000000
Au  -2.243810  -0.000000  -0.000000
Au   4.834745  -0.000000   0.000000
Au  -4.834745   0.000000  -0.000000
Au  -1.280301  -6.180269  -0.000000
Au   1.280301   6.180269   0.000000
Au   1.280301  -6.180269  -0.000000
Au  -1.280301   6.180269   0.000000
Au  -3.575557   0.000000   2.253207
Au   3.575557   0.000000   2.253207
Au   3.575557  -0.000000  -2.253207
Au  -3.575557  -0.000000  -2.253207
Au  -0.000000  -2.608021  -2.261203
Au   0.000000   2.608021  -2.261203
Au  -0.000000  -2.608021   2.261203
Au   0.000000   2.608021   2.261203
