20
-1549.87330700
Au   0.000000  -3.859231  -0.000000
Au   0.000000   3.859231  -0.000000
Au  -0.000000  -1.271494  -0.000000
Au  -0.000000   1.271494  -0.000000
Au  -5.203875  -0.000000   0.000000
Au   5.203875   0.000000   0.000000
Au  -2.548665  -0.000000   0.000000
Au   2.548665   0.000000   0.000000
Au  -1.277590   0.000000  -2.212054
Au   1.277590  -0.000000  -2.212054
Au   1.277590   0.000000   2.212054
Au  -1.277590   0.000000   2.212054
Au  -3.873007  -0.000000  -2.228329
Au   3.873007  -0.000000  -2.228329
Au   3.873007  -0.000000   2.228329
Au  -3.873007   0.000000   2.228329
Au  -0.000000   1.307212   4.072679
Au   0.000000  -1.307212   4.072679
Au  -0.000000   1.307212  -4.072679
Au   0.000000  -1.307212  -4.072679
