20
-1548.84159400
Au   0.000000  -5.064643   0.000000
Au  -0.000000   5.064643   0.000000
Au  -0.000000  -2.511293   0.000000
Au   0.000000   2.511293  -0.000000
Au   3.838618  -0.000000   0.000000
Au  -3.838618  -0.000000  -0.000000
Au  -1.262085   0.000000   0.000000
Au   1.262085  -0.000000   0.000000
Au   2.442240   0.000000  -2.306530
Au  -2.442240  -0.000000  -2.306530
Au  -2.442240  -0.000000   2.306530
Au   2.442240  -0.000000   2.306530
Au   0.000000  -1.270229  -2.236958
Au  -0.000000   1.270229  -2.236958
Au  -0.000000  -1.270229   2.236958
Au  -0.000000   1.270229   2.236958
Au  -0.000000  -1.291751   4.825486
Au   0.000000   1.291751   4.825486
Au  -0.000000  -1.291751  -4.825486
Au   0.000000   1.291751  -4.825486
