20
-1553.44818700
Au  -0.000000  -0.000000   1.262043
Au  -0.000000   0.000000  -1.262043
Au   0.000000  -0.000000   3.824025
Au  -0.000000  -0.000000  -3.824025
Au   0.000000  -2.364115   0.000000
Au   0.000000   2.364115  -0.000000
Au  -4.651582  -0.000000  -0.000000
Au   4.651582   0.000000   0.000000
Au   2.392840  -1.331447   0.000000
Au  -2.392840   1.331447   0.000000
Au  -2.392840  -1.331447   0.000000
Au   2.392840   1.331447  -0.000000
Au   1.312857   1.956535   2.375697
Au  -1.312857  -1.956535   2.375697
Au  -1.312857   1.956535  -2.375697
Au   1.312857  -1.956535  -2.375697
Au  -1.312857  -1.956535  -2.375697
Au   1.312857   1.956535  -2.375697
Au   1.312857  -1.956535   2.375697
Au  -1.312857   1.956535   2.375697
