20
-1551.60456500
Au   0.000000   0.000000   3.887704
Au   0.000000  -0.000000  -3.887704
Au   0.000000   0.000000   1.270620
Au   0.000000   0.000000  -1.270620
Au   2.581557   0.000000  -0.000000
Au  -2.581557  -0.000000  -0.000000
Au  -5.172484  -0.000000   0.000000
Au   5.172484   0.000000   0.000000
Au  -1.293607   2.231434   0.000000
Au   1.293607  -2.231434   0.000000
Au   1.293607   2.231434   0.000000
Au  -1.293607  -2.231434   0.000000
Au   1.350941   1.824086  -2.580224
Au  -1.350941  -1.824086  -2.580224
Au  -1.350941   1.824086   2.580224
Au   1.350941  -1.824086   2.580224
Au  -1.350941  -1.824086   2.580224
Au   1.350941   1.824086   2.580224
Au   1.350941  -1.824086  -2.580224
Au  -1.350941   1.824086  -2.580224
