20
-1544.88276300
Au   0.000000   0.000000  -4.503765
Au   0.000000   0.000000   4.503765
Au   0.000000  -0.000000  -1.940562
Au  -0.000000  -0.000000   1.940562
Au  -3.157685  -3.157685   0.000000
Au   3.157685   3.157685   0.000000
Au   3.157685  -3.157685   0.000000
Au  -3.157685   3.157685   0.000000
Au   1.345538   1.345538   0.000000
Au  -1.345538  -1.345538   0.000000
Au  -1.345538   1.345538   0.000000
Au   1.345538  -1.345538   0.000000
Au   2.634349   0.000000   1.864274
Au  -2.634349  -0.000000   1.864274
Au  -0.000000   2.634349   1.864274
Au   0.000000  -2.634349   1.864274
Au  -2.634349   0.000000  -1.864274
Au   2.634349  -0.000000  -1.864274
Au   0.000000   2.634349  -1.864274
Au  -0.000000  -2.634349  -1.864274
