20
-1550.04359800
Au  -0.000000  -0.000000  -3.826037
Au  -0.000000  -0.000000   3.826037
Au   0.000000   0.000000  -1.279899
Au   0.000000   0.000000   1.279899
Au  -2.247060   0.000000  -0.000000
Au   2.247060   0.000000  -0.000000
Au  -4.848758   0.000000   0.000000
Au   4.848758   0.000000  -0.000000
Au   3.413006   2.283913   0.000000
Au  -3.413006  -2.283913   0.000000
Au  -3.413006   2.283913   0.000000
Au   3.413006  -2.283913   0.000000
Au   2.033039   1.317785  -2.310195
Au  -2.033039  -1.317786  -2.310195
Au  -2.033039   1.317786   2.310195
Au   2.033039  -1.317785   2.310195
Au  -2.033039  -1.317786   2.310195
Au   2.033039   1.317785   2.310195
Au   2.033039  -1.317785  -2.310195
Au  -2.033039   1.317786  -2.310195
