20
-1553.69999600
Au  -0.000000  -0.000009  -3.536466
Au   0.000000  -0.000049   3.536466
Au   0.000000   2.412794   0.000005
Au   0.000000  -2.412796  -0.000004
Au  -3.957707   0.000002   0.000000
Au   3.957707   0.000002   0.000000
Au   1.318060  -0.000001  -0.000000
Au  -1.318060  -0.000001  -0.000000
Au   2.684792  -2.272122  -0.000007
Au  -2.684780   2.272120   0.000007
Au  -2.684792  -2.272122  -0.000007
Au   2.684780   2.272120   0.000007
Au  -1.326923  -1.791260  -2.186726
Au   1.326929   1.791263  -2.186723
Au   1.326910  -1.791249   2.186743
Au  -1.326943   1.791276   2.186706
Au   1.326943   1.791276   2.186706
Au  -1.326910  -1.791249   2.186743
Au  -1.326929   1.791263  -2.186723
Au   1.326923  -1.791260  -2.186726
