20
-1551.13510500
Au   0.000000   0.000000   2.270227
Au   0.000000   0.000000  -2.270227
Au  -1.297213  -0.000000  -0.000000
Au   1.297213   0.000000   0.000000
Au   3.556642  -3.909720   0.000000
Au  -3.556642   3.909720  -0.000000
Au  -3.556642  -3.909720   0.000000
Au   3.556642   3.909720  -0.000000
Au  -1.284375   2.584982   0.000000
Au   1.284375  -2.584982  -0.000000
Au   1.284375   2.584982   0.000000
Au  -1.284375  -2.584982   0.000000
Au  -3.589679  -1.301675  -0.000000
Au   3.589679   1.301675  -0.000000
Au   3.589679  -1.301675   0.000000
Au  -3.589679   1.301675   0.000000
Au   1.288382  -5.173942   0.000000
Au  -1.288382   5.173942   0.000000
Au  -1.288382  -5.173942   0.000000
Au   1.288382   5.173942   0.000000
