20
-1551.45958900
Au  -0.000000   3.546277  -0.000000
Au   0.000000  -3.546277  -0.000000
Au   3.545361  -0.000000  -0.000000
Au  -3.545361   0.000000   0.000000
Au  -2.616874   3.502324  -0.000000
Au   2.616874  -3.502324  -0.000000
Au   2.616874   3.502324   0.000000
Au  -2.616874  -3.502324  -0.000000
Au  -4.869435  -4.774202   0.000000
Au   4.869435   4.774202   0.000000
Au   4.869435  -4.774202   0.000000
Au  -4.869435   4.774202  -0.000000
Au  -1.284479  -1.283361  -0.000000
Au   1.284479   1.283361   0.000000
Au   1.284479  -1.283361  -0.000000
Au  -1.284479   1.283361  -0.000000
Au  -4.900506   2.192389   0.000000
Au   4.900506  -2.192389  -0.000000
Au   4.900506   2.192389  -0.000000
Au  -4.900506  -2.192389   0.000000
