20
-1551.07781600
Au   0.000079   3.557720   0.000000
Au   0.000031  -3.557692  -0.000000
Au  -6.160394  -0.000045  -0.000000
Au   6.160431  -0.000041  -0.000000
Au  -3.927676  -1.377229   0.000000
Au   3.927619   1.377316   0.000000
Au   3.927705  -1.377261  -0.000000
Au  -3.927656   1.377178  -0.000000
Au  -2.572837  -3.623477  -0.000000
Au   2.572858   3.623391   0.000000
Au   2.572852  -3.623528  -0.000000
Au  -2.572852   3.623583   0.000000
Au   1.330465  -1.301246   0.000000
Au  -1.330482   1.301234   0.000000
Au  -1.330406  -1.301240  -0.000000
Au   1.330444   1.301240   0.000000
Au   6.235679  -2.581104  -0.000000
Au  -6.235756   2.581122  -0.000000
Au  -6.235603  -2.581012   0.000000
Au   6.235498   2.581093  -0.000000
