20
-1554.54518600
Au  -0.237597  -0.606484  -3.770900
Au   0.154176  -0.797657   3.860707
Au  -0.162366  -0.368693  -1.095694
Au  -0.015921   0.155530   1.447265
Au  -0.086943  -2.994552  -0.134992
Au  -0.149665   2.344415  -0.180778
Au   2.159173   0.955724   0.083725
Au  -2.289177   0.705772   0.196174
Au   1.956801   0.255488  -2.510825
Au  -2.402380   0.052836  -2.375175
Au  -2.274081  -0.017276   2.793155
Au   2.339769   0.126561   2.614697
Au   1.844785   2.785645  -1.823975
Au  -1.471943  -2.420337  -2.295434
Au  -1.430266   2.359293   2.098556
Au   1.344317  -2.168434   1.903202
Au  -1.256047  -2.310859   2.119603
Au   1.197553   2.436812   2.131470
Au   1.176911  -2.275253  -2.321122
Au  -0.397099   1.781469  -2.739662
