20
-1550.89260100
Au  -0.000000   0.000000   3.884131
Au  -0.000000   0.000000  -3.884131
Au   0.000001   0.000000   1.285754
Au   0.000001   0.000000  -1.285754
Au  -3.585863  -0.000252   0.000000
Au   3.585862   0.000252  -0.000000
Au   0.000068  -3.727552   0.000000
Au  -0.000068   3.727552   0.000000
Au   1.668165   1.740658  -0.000000
Au  -1.668165  -1.740658   0.000000
Au  -1.668479   1.740530  -0.000000
Au   1.668479  -1.740530   0.000000
Au   1.310290   1.899177  -2.609110
Au  -1.310290  -1.899177  -2.609110
Au  -1.309711   1.899503  -2.609044
Au   1.309711  -1.899503  -2.609044
Au  -1.309711   1.899503   2.609044
Au   1.309711  -1.899503   2.609044
Au   1.310290   1.899177   2.609110
Au  -1.310290  -1.899177   2.609110
