20
-1553.79033600
Au  -0.000024   0.000000  -5.946768
Au  -0.000018  -0.000000   5.946768
Au   0.000025  -0.000000  -2.266442
Au   0.000006   0.000000   2.266442
Au   1.348509   0.000000   0.000007
Au  -1.348509   0.000000  -0.000007
Au  -3.963632  -0.000000  -0.000008
Au   3.963641  -0.000000   0.000008
Au   2.657375   0.000000   2.276054
Au  -2.657374   0.000000   2.276045
Au  -2.657361  -0.000000  -2.276048
Au   2.657388  -0.000000  -2.276051
Au  -1.324204  -1.326240  -4.123491
Au   1.324217   1.326225  -4.123527
Au   1.324198  -1.326234   4.123519
Au  -1.324224   1.326231   4.123498
Au   1.324198   1.326234   4.123519
Au  -1.324224  -1.326231   4.123498
Au  -1.324204   1.326240  -4.123491
Au   1.324217  -1.326225  -4.123527
