20
-1551.69919300
Au   0.000000  -0.000000  -1.904542
Au  -0.000000  -0.000000   1.904542
Au   0.000000  -4.656403   0.000000
Au  -0.000000   4.656403  -0.000000
Au  -0.000005   2.039054   0.000000
Au   0.000004  -2.039054  -0.000000
Au   1.800380  -0.000001  -0.000000
Au  -1.800380   0.000001   0.000000
Au   2.539428   0.000000  -2.585033
Au  -2.539428  -0.000000  -2.585033
Au  -2.539428  -0.000000   2.585033
Au   2.539428   0.000000   2.585033
Au  -2.236979  -2.258705   1.328784
Au   2.236979   2.258705   1.328784
Au   2.236977  -2.258705  -1.328782
Au  -2.236977   2.258705  -1.328782
Au   2.236979   2.258705  -1.328784
Au  -2.236979  -2.258705  -1.328784
Au  -2.236977   2.258705   1.328782
Au   2.236977  -2.258705   1.328782
