20
-1553.03354800
Au   0.000000   0.000000  -2.270934
Au   0.000000   0.000000   2.270934
Au   0.000000  -2.286311  -0.000000
Au   0.000000   2.286311   0.000000
Au   3.858347  -0.000000  -0.000000
Au  -3.858347  -0.000000   0.000000
Au   1.297559  -0.000000   0.000000
Au  -1.297559  -0.000000   0.000000
Au  -2.626917   0.000000  -2.399484
Au   2.626917   0.000000  -2.399484
Au   2.626917   0.000000   2.399484
Au  -2.626917  -0.000000   2.399484
Au  -2.282519  -2.304676   1.299678
Au   2.282519   2.304676   1.299678
Au   2.282519  -2.304676  -1.299678
Au  -2.282519   2.304676  -1.299678
Au   2.282519   2.304676  -1.299678
Au  -2.282519  -2.304676  -1.299678
Au  -2.282519   2.304676   1.299678
Au   2.282519  -2.304676   1.299678
