20
-1553.13673500
Au   0.000000  -0.000000  -2.293176
Au   0.000000   0.000000   2.293176
Au  -0.000000   3.040809  -0.000000
Au  -0.000000  -3.040808   0.000000
Au   3.866937  -0.000000  -0.000000
Au  -3.866937  -0.000000  -0.000000
Au  -1.296276  -0.000000   0.000000
Au   1.296276  -0.000000   0.000000
Au  -2.617851  -0.000000   2.382878
Au   2.617851  -0.000000   2.382878
Au   2.617851   0.000000  -2.382878
Au  -2.617851   0.000000  -2.382878
Au  -2.127124   2.290127  -1.297698
Au   2.127124  -2.290127  -1.297698
Au   2.127124   2.290127   1.297698
Au  -2.127124  -2.290127   1.297698
Au   2.127124  -2.290127   1.297698
Au  -2.127124   2.290127   1.297698
Au  -2.127124  -2.290127  -1.297698
Au   2.127124   2.290127  -1.297698
