20
-1551.74288100
Au   0.000000   0.000000  -3.562513
Au  -0.000000  -0.000000   3.562513
Au  -6.173444  -0.000000  -0.000000
Au   6.173444  -0.000000   0.000000
Au   2.591587   0.000000  -3.578786
Au  -2.591587   0.000000  -3.578786
Au  -2.591587  -0.000000   3.578786
Au   2.591587  -0.000000   3.578786
Au   3.918931   0.000000   1.291709
Au  -3.918931   0.000000   1.291709
Au  -3.918931   0.000000  -1.291709
Au   3.918931   0.000000  -1.291709
Au   1.303282  -0.000000   1.298895
Au  -1.303282   0.000000   1.298895
Au  -1.303282   0.000000  -1.298895
Au   1.303282  -0.000000  -1.298895
Au   5.179948   0.000000  -3.581728
Au  -5.179948  -0.000000  -3.581728
Au  -5.179948  -0.000000   3.581728
Au   5.179948   0.000000   3.581728
