20
-1551.56092100
Au  -0.000000  -1.906229  -0.000000
Au   0.000000   1.906229   0.000000
Au   3.626706   0.000000   0.000000
Au  -3.626706  -0.000000  -0.000000
Au   3.597791  -0.000000  -5.171191
Au  -3.597791  -0.000000  -5.171191
Au  -3.597791   0.000000   5.171191
Au   3.597791   0.000000   5.171191
Au   3.573411  -0.000000  -2.598939
Au  -3.573411  -0.000000  -2.598939
Au  -3.573411   0.000000   2.598939
Au   3.573411   0.000000   2.598939
Au   1.293558  -0.000000   3.922603
Au  -1.293558  -0.000000   3.922603
Au  -1.293558   0.000000  -3.922603
Au   1.293558   0.000000  -3.922603
Au  -1.312347  -0.000000   1.295032
Au   1.312347  -0.000000   1.295032
Au   1.312347   0.000000  -1.295032
Au  -1.312347   0.000000  -1.295032
