20
-1551.11540800
Au   0.000000  -0.000001  -1.291815
Au   0.000000  -0.000001   1.291815
Au  -0.000000  -0.000000  -3.900021
Au  -0.000000  -0.000000   3.900021
Au   1.353834   1.826631   0.000000
Au  -1.353833  -1.826629  -0.000000
Au  -1.354578   1.826101  -0.000000
Au   1.354576  -1.826099   0.000000
Au  -3.379719  -3.408620   0.000000
Au   3.379718   3.408619   0.000000
Au   3.378272  -3.410822   0.000000
Au  -3.378271   3.410821   0.000000
Au  -1.316148  -1.877873   2.624377
Au   1.316148   1.877873   2.624377
Au   1.310493  -1.881518   2.624243
Au  -1.310493   1.881518   2.624243
Au   1.310493  -1.881518  -2.624243
Au  -1.310493   1.881518  -2.624243
Au  -1.316148  -1.877873  -2.624377
Au   1.316148   1.877873  -2.624377
