20
-1552.82384000
Au  -0.000000   0.000002  -2.444578
Au   0.000000  -0.000000   2.444578
Au  -0.000000   5.139380  -0.000000
Au  -0.000000  -5.139380   0.000000
Au  -0.000000  -2.509599   0.000000
Au  -0.000000   2.509599  -0.000000
Au   3.741128  -0.000000  -0.000000
Au  -3.741128  -0.000000  -0.000000
Au  -0.000000  -2.589779  -2.602772
Au  -0.000000   2.589778  -2.602772
Au   0.000000  -2.589778   2.602772
Au   0.000000   2.589779   2.602772
Au   2.011802   1.382990  -1.378649
Au  -2.011802  -1.382990  -1.378649
Au  -2.011802   1.382990   1.378649
Au   2.011802  -1.382990   1.378649
Au  -2.011802  -1.382990   1.378649
Au   2.011802   1.382990   1.378649
Au   2.011802  -1.382990  -1.378649
Au  -2.011802   1.382990  -1.378649
