20
-1551.95772200
Au  -0.000000   0.000000   4.144099
Au  -0.000000   0.000000  -4.144099
Au  -0.000000  -2.335117   0.000000
Au  -0.000000   2.335117   0.000000
Au  -3.908049   0.000000   0.000000
Au   3.908049   0.000000   0.000000
Au   1.322178   0.000000   0.000000
Au  -1.322178   0.000000   0.000000
Au  -0.000000   3.580764  -2.294549
Au  -0.000000  -3.580764  -2.294549
Au  -0.000000   3.580764   2.294549
Au  -0.000000  -3.580764   2.294549
Au   1.312751  -1.323547  -2.273838
Au  -1.312751   1.323547  -2.273838
Au  -1.312751  -1.323547   2.273838
Au   1.312751   1.323547   2.273838
Au  -1.312751   1.323547   2.273838
Au   1.312751  -1.323547   2.273838
Au   1.312751   1.323547  -2.273838
Au  -1.312751  -1.323547  -2.273838
