20
-1553.44644100
Au  -0.000000   0.000000   1.713849
Au  -0.000000   0.000001  -2.824168
Au  -0.038946  -1.364480  -0.498696
Au   0.038946   1.364480  -0.498695
Au   4.360767  -0.046800  -1.274142
Au  -4.360767   0.046800  -1.274142
Au  -2.248187   0.017907   0.251269
Au   2.248188  -0.017908   0.251269
Au  -0.021342  -1.314846   4.006937
Au   0.021342   1.314846   4.006936
Au  -0.036150  -2.595236  -2.791256
Au   0.036150   2.595236  -2.791257
Au  -2.173309   1.203507   2.598230
Au   2.173309  -1.203507   2.598231
Au   2.250807   1.321905  -2.107017
Au  -2.250807  -1.321905  -2.107017
Au   2.192727  -1.358894  -2.068116
Au  -2.192727   1.358894  -2.068116
Au  -2.103336  -1.431441   2.437951
Au   2.103336   1.431441   2.437951
