20
-1548.36255200
Au   0.000000  -0.000012   2.438474
Au   0.000000   0.000012  -2.438459
Au   0.000000   4.600242  -0.000037
Au  -0.000000  -4.600244  -0.000025
Au   1.286407   0.000002   0.000011
Au  -1.286407   0.000002   0.000011
Au  -3.877501  -0.000000  -0.000001
Au   3.877501  -0.000000  -0.000001
Au   0.000000   2.294621  -1.312136
Au  -0.000000  -2.294627  -1.312126
Au   0.000000   2.294588   1.312107
Au  -0.000000  -2.294581   1.312116
Au  -1.316198  -4.386307  -2.202483
Au   1.316191   4.386303  -2.202478
Au   1.316208  -4.386282   2.202495
Au  -1.316217   4.386284   2.202500
Au   1.316217   4.386284   2.202500
Au  -1.316208  -4.386282   2.202495
Au  -1.316191   4.386303  -2.202478
Au   1.316198  -4.386307  -2.202483
