20
-1551.69919900
Au   0.000000   0.000000   1.904424
Au   0.000000   0.000000  -1.904424
Au   0.000000  -1.800802   0.000000
Au  -0.000000   1.800802  -0.000000
Au  -2.038688   0.000000   0.000000
Au   2.038688  -0.000000  -0.000000
Au  -4.656321   0.000000   0.000000
Au   4.656321   0.000000  -0.000000
Au  -0.000000  -2.538949  -2.585362
Au   0.000000   2.538949  -2.585362
Au  -0.000000  -2.538949   2.585362
Au   0.000000   2.538949   2.585362
Au   2.258550   2.237371  -1.328504
Au  -2.258550  -2.237371  -1.328504
Au  -2.258550   2.237371   1.328504
Au   2.258550  -2.237371   1.328504
Au  -2.258550  -2.237371   1.328504
Au   2.258550   2.237371   1.328504
Au   2.258550  -2.237371  -1.328504
Au  -2.258550   2.237371  -1.328504
