20
-1551.60506400
Au  -2.591970  -2.591970  -2.591970
Au   2.591970   2.591970  -2.591970
Au   2.591970  -2.591970   2.591970
Au  -2.591970   2.591970   2.591970
Au  -0.958847  -0.958847  -0.958847
Au   0.958847   0.958847  -0.958847
Au   0.958847  -0.958847   0.958847
Au  -0.958847   0.958847   0.958847
Au  -0.911052  -0.911052  -3.596590
Au   0.911052   0.911052  -3.596590
Au   0.911052  -0.911052   3.596590
Au  -0.911052   0.911052   3.596590
Au  -3.596590  -0.911052  -0.911052
Au  -3.596590   0.911052   0.911052
Au   3.596590   0.911052  -0.911052
Au   3.596590  -0.911052   0.911052
Au  -0.911052  -3.596590  -0.911052
Au   0.911052  -3.596590   0.911052
Au  -0.911052   3.596590   0.911052
Au   0.911052   3.596590  -0.911052
