20
-1552.29443700
Au  -0.000000  -0.000000   1.277119
Au  -0.000000   0.000000  -1.277119
Au   5.202987  -0.629928  -0.000000
Au  -2.081649   4.810775  -0.000000
Au  -3.064143  -4.103318  -0.000000
Au  -5.202987   0.629928  -0.000000
Au   2.081649  -4.810775   0.000000
Au   3.064143   4.103318   0.000000
Au  -4.173595  -1.752735  -0.000000
Au   3.664588  -2.737133  -0.000000
Au   0.495471   4.500334  -0.000000
Au   4.173595   1.752735   0.000000
Au  -3.664588   2.737133  -0.000000
Au  -0.495471  -4.500334  -0.000000
Au   2.582197  -0.330286   0.000000
Au  -1.049816   2.383220  -0.000000
Au  -1.502559  -2.012161  -0.000000
Au  -2.582197   0.330286   0.000000
Au   1.049816  -2.383220   0.000000
Au   1.502559   2.012161  -0.000000
