20
-1549.31697400
Au   0.000000  -0.000000   1.277571
Au   0.000000   0.000000  -1.277571
Au   1.564522   2.054125  -0.000000
Au  -2.561186   0.327855  -0.000000
Au   0.996661  -2.381979  -0.000000
Au  -1.564522  -2.054125  -0.000000
Au   2.561186  -0.327855  -0.000000
Au  -0.996661   2.381979  -0.000000
Au  -3.264571   2.486369   1.309608
Au  -0.520973  -4.070386   1.309608
Au   3.785544   1.584017   1.309608
Au   3.264571  -2.486369   1.309608
Au   0.520973   4.070386   1.309608
Au  -3.785544  -1.584017   1.309608
Au   3.264571  -2.486369  -1.309608
Au   0.520973   4.070386  -1.309608
Au  -3.785544  -1.584017  -1.309608
Au  -3.264571   2.486369  -1.309608
Au  -0.520973  -4.070386  -1.309608
Au   3.785544   1.584017  -1.309608
