20
-1552.04440700
Au  -0.761675   0.000000   1.049340
Au   0.883893  -0.000000  -0.948508
Au   5.137081  -0.000000  -2.604481
Au  -5.023942  -0.000000   2.702318
Au  -1.571511   0.000000   5.541007
Au   1.689611   0.000000  -5.448832
Au  -0.013321   0.000000  -3.460444
Au   0.130533   0.000000   3.550139
Au   2.709555   0.000000   3.912732
Au  -2.598152  -0.000000  -3.824195
Au   1.791294   0.000000   1.475341
Au  -1.678084   0.000000  -1.382118
Au  -3.398730  -0.000000   0.650006
Au   3.509214  -0.000000  -0.552394
Au   4.359509  -0.000000   1.909234
Au  -4.251263  -0.000000  -1.817044
Au   2.564941  -0.000000  -2.998187
Au  -2.451030   0.000000   3.091994
Au  -0.513960   2.165268  -0.422953
Au  -0.513960  -2.165268  -0.422953
