20
-1550.12694400
Au   0.000000   0.000000   4.504141
Au  -0.000000  -0.000000  -4.504141
Au  -0.000000   0.000000  -1.935971
Au   0.000000   0.000000   1.935971
Au  -1.825930   0.000000   0.000000
Au   1.825930   0.000000   0.000000
Au   0.000000  -1.825930   0.000000
Au  -0.000000   1.825930  -0.000000
Au  -3.866355  -3.866355  -0.000000
Au   3.866355   3.866355   0.000000
Au   3.866355  -3.866355   0.000000
Au  -3.866355   3.866355  -0.000000
Au   1.291162  -4.066624   0.000000
Au  -1.291162   4.066624  -0.000000
Au   4.066624   1.291162  -0.000000
Au  -4.066624  -1.291162   0.000000
Au  -1.291162  -4.066624   0.000000
Au   1.291162   4.066624  -0.000000
Au  -4.066624   1.291162   0.000000
Au   4.066624  -1.291162  -0.000000
