20
-1551.16385300
Au  -0.861210  -0.418105  -4.362259
Au   0.273892   0.496265   3.350366
Au   2.468551  -0.304413   4.444489
Au  -3.131926   0.398483  -5.415130
Au   3.157190  -2.282378  -4.738420
Au  -3.079695   2.616377   6.612910
Au   1.337432  -1.194389  -3.257382
Au  -1.561060   1.594561   4.804589
Au  -1.352580  -0.680773  -6.909491
Au   3.007560  -0.096904   6.973404
Au  -0.477727  -0.104572  -1.786633
Au  -0.086775   0.192913   0.766641
Au   2.110831  -0.598954   1.895756
Au  -2.705947   0.698285  -2.840771
Au  -4.917565   1.474607  -3.920082
Au   4.739779  -1.180441   5.295950
Au  -2.316906   1.002379  -0.305998
Au   1.772896  -0.913117  -0.667998
Au  -1.943092   1.303390   2.247306
Au   3.566351  -2.003215  -2.187246
