20
-1552.77851900
Au   1.168804  -0.000000  -3.973335
Au   0.509162   0.000000   6.518467
Au  -3.829521   0.000000   0.771949
Au   3.286550  -0.000000  -2.310615
Au  -3.536981   0.000000  -1.805170
Au   3.028462  -0.000000   0.285387
Au   0.627354  -0.000000   1.349952
Au  -1.429472   0.000000  -0.214018
Au   0.932559  -0.000000  -1.238982
Au  -1.744839   0.000000   2.367796
Au   3.599463  -0.000000  -4.884050
Au  -4.138540   0.000000   3.331537
Au  -1.116067   0.000000  -2.760502
Au   0.310025  -0.000000   3.924688
Au   2.759615  -0.000000   2.882700
Au  -3.112377   0.000000  -4.396478
Au   2.247568   1.339537   5.086380
Au  -0.904667   1.326303  -5.011043
Au  -0.904667  -1.326303  -5.011043
Au   2.247568  -1.339537   5.086380
