20
-1551.55832600
Au  -0.754194  -0.000000  -4.036195
Au  -0.618844  -0.000000   5.351791
Au  -4.425798   0.000000  -0.366383
Au   3.108410   0.000000   1.733348
Au   1.776864  -0.000000  -3.444224
Au  -1.263406  -0.000000   2.819264
Au  -3.891561   0.000000   2.166431
Au   4.319391  -0.000000  -2.762007
Au  -2.632863  -0.000000  -2.238200
Au   1.284994   0.000000   3.571303
Au   2.588706  -0.000000  -0.825599
Au  -1.902193   0.000000   0.316844
Au   0.605426   0.000000   0.986983
Au  -0.032814  -0.000000  -1.536257
Au   3.632449   0.000000  -5.262314
Au  -3.124990  -0.000000   4.651836
Au   1.488519  -2.125252  -1.920314
Au  -0.823308  -2.172935   1.357003
Au  -0.823308   2.172935   1.357003
Au   1.488519   2.125252  -1.920314
