20
-1553.21569800
Au   3.748023   0.000000  -2.940864
Au  -3.748023   0.000000   2.940864
Au  -0.475211   0.000000  -1.211289
Au   0.475211   0.000000   1.211289
Au  -6.336249  -0.000000   2.512154
Au   6.336249   0.000000  -2.512154
Au   3.150046  -0.000000   1.581831
Au  -3.150046   0.000000  -1.581831
Au   4.706359   0.000000  -0.501755
Au  -4.706359  -0.000000   0.501755
Au  -2.730424   0.000000   5.319920
Au   2.730424  -0.000000  -5.319920
Au   1.472436   0.000000   3.614222
Au  -1.472436   0.000000  -3.614222
Au  -2.104649   0.000000   0.823248
Au   2.104649   0.000000  -0.823248
Au  -4.034181  -0.000000  -4.022526
Au   4.034181  -0.000000   4.022526
Au  -1.122951   0.000000   3.281730
Au   1.122951   0.000000  -3.281730
