20
-1554.18218400
Au  -2.156468  -0.000000  -5.277857
Au   2.156468  -0.000000   5.277857
Au   1.586408   0.000000  -1.616370
Au  -1.586408  -0.000000   1.616370
Au   0.939298   0.000000   0.930973
Au  -0.939298   0.000000  -0.930973
Au   2.263174   0.000000  -4.202588
Au  -2.263174   0.000000   4.202588
Au  -3.464115   0.000000  -0.225211
Au   3.464115  -0.000000   0.225211
Au  -0.345546  -0.000000   5.985906
Au   0.345546   0.000000  -5.985906
Au   4.116366   0.000000  -2.289082
Au  -4.116366  -0.000000   2.289082
Au  -2.814605  -0.000000  -2.759674
Au   2.814605   0.000000   2.759674
Au   0.266630  -0.000000   3.448255
Au  -0.266630   0.000000  -3.448255
Au  -4.799747   0.000000   4.789299
Au   4.799747  -0.000000  -4.789299
