20
-1553.84419800
Au  -5.703719  -0.000000  -0.758605
Au   5.703719   0.000000   0.758605
Au  -0.007036   0.000000   4.679548
Au   0.007036  -0.000000  -4.679548
Au   5.007301  -0.000000   3.261996
Au  -5.007301  -0.000000  -3.261996
Au   2.520057  -0.000000   4.038419
Au  -2.520057  -0.000000  -4.038419
Au   3.131976  -0.000000   1.453145
Au  -3.131976   0.000000  -1.453145
Au   1.265216  -0.000000  -0.351343
Au  -1.265216   0.000000   0.351343
Au  -3.815267   0.000000   1.058520
Au   3.815267  -0.000000  -1.058520
Au  -4.474003  -0.000000   3.559642
Au   4.474003   0.000000  -3.559642
Au  -1.934552   0.000000   2.915113
Au   1.934552   0.000000  -2.915113
Au   0.621603   0.000000   2.161608
Au  -0.621603   0.000000  -2.161608
