20
-1551.73163600
Au  -0.185213  -0.000019   1.706153
Au   0.312447  -0.000002  -0.997916
Au   2.469338  -0.000003   1.721533
Au  -2.178262  -0.000000  -2.200073
Au   4.658769   0.000000  -4.105056
Au  -3.993091  -0.000000   4.303119
Au  -4.489326   0.000000  -3.390964
Au   3.792908  -0.000000   3.958919
Au  -2.342565   0.000000  -4.856847
Au   1.195392  -0.000000   4.033858
Au  -0.029043  -0.000000  -3.697819
Au  -1.391208  -0.000000   4.141292
Au  -2.890754  -0.000000   1.977937
Au   2.407523   0.000002  -2.809379
Au   0.528710   2.294069   0.648921
Au   0.528725  -2.294058   0.648915
Au   2.590360   1.308108  -0.556321
Au  -1.787509   1.319094   0.015003
Au  -1.787510  -1.319093   0.015003
Au   2.590312  -1.308100  -0.556279
