20
-1550.24170100
Au  -0.000000  -0.000000   3.880545
Au  -0.000000  -0.000000  -3.880545
Au   0.000000   0.000000  -1.302791
Au  -0.000000  -0.000000   1.302791
Au   2.385501   0.000000   0.000000
Au  -2.385501  -0.000000  -0.000000
Au   0.000000   2.385501  -0.000000
Au  -0.000000  -2.385501  -0.000000
Au   2.627278   2.627278   0.000000
Au  -2.627278  -2.627278  -0.000000
Au  -2.627278   2.627278  -0.000000
Au   2.627278  -2.627278   0.000000
Au  -4.804006  -1.278033   0.000000
Au   4.804006   1.278033  -0.000000
Au   1.278033  -4.804006  -0.000000
Au  -1.278033   4.804006   0.000000
Au   4.804006  -1.278033   0.000000
Au  -4.804006   1.278033   0.000000
Au  -1.278033  -4.804006   0.000000
Au   1.278033   4.804006  -0.000000
