20
-1552.77749900
Au   1.875897  -0.000000   2.922558
Au  -1.875897   0.000000  -2.922558
Au   3.204176  -0.000000  -1.429744
Au  -3.204176   0.000000   1.429744
Au  -2.515321   0.000000  -5.470025
Au   2.515321   0.000000   5.470025
Au   1.293578  -0.000000   0.375211
Au  -1.293578   0.000000  -0.375211
Au  -3.810154   0.000000  -1.112927
Au   3.810154  -0.000000   1.112927
Au  -0.598780   0.000000   2.131724
Au   0.598780  -0.000000  -2.131724
Au   0.008201   0.000000  -4.770030
Au  -0.008201  -0.000000   4.770030
Au   2.473087  -0.000000  -3.931038
Au  -2.473087   0.000000   3.931038
Au   4.382864  -0.000000   3.662800
Au  -4.382864   0.000000  -3.662800
Au   0.000000  -2.232900  -0.000000
Au   0.000000   2.232900  -0.000000
