20
-1551.34442200
Au  -3.121621   0.000000  -3.157056
Au   3.121621  -0.000000   3.157056
Au   1.818822  -0.000000  -3.576333
Au  -1.818822  -0.000000   3.576333
Au   3.905289  -0.000000  -1.987674
Au  -3.905289  -0.000000   1.987674
Au  -2.796860  -0.000000  -5.716699
Au   2.796860   0.000000   5.716699
Au  -1.479209   0.000000   1.034626
Au   1.479209  -0.000000  -1.034626
Au   1.069081  -0.000000   1.530994
Au  -1.069081   0.000000  -1.530994
Au  -3.542227   0.000000  -0.600053
Au   3.542227  -0.000000   0.600053
Au  -0.687635   0.000000  -4.198996
Au   0.687635  -0.000000   4.198996
Au   0.000000  -1.951177  -0.000000
Au   0.000000   1.951177  -0.000000
Au  -0.000000   4.519440   0.000000
Au  -0.000000  -4.519440   0.000000
