20
-1551.35581300
Au  -2.065113   0.000000  -3.471478
Au   2.065113  -0.000000   3.471478
Au   0.410919   0.000000  -4.202443
Au  -0.410919  -0.000000   4.202443
Au  -2.408050  -0.000000   5.866116
Au   2.408050   0.000000  -5.866116
Au  -3.498443  -0.000000   0.811684
Au   3.498443   0.000000  -0.811684
Au   0.974954   0.000000  -1.576804
Au  -0.974954  -0.000000   1.576804
Au  -1.545347   0.000000  -0.959249
Au   1.545347  -0.000000   0.959249
Au   4.034453  -0.000000   1.743261
Au  -4.034453   0.000000  -1.743261
Au  -2.913677  -0.000000   3.336364
Au   2.913677   0.000000  -3.336364
Au  -0.000000   1.948797   0.000000
Au  -0.000000  -1.948797  -0.000000
Au   0.000000   4.517214  -0.000000
Au   0.000000  -4.517214  -0.000000
