20
-1552.66698300
Au  -0.490512   0.000000  -1.433442
Au   0.674520  -0.000000   3.097484
Au  -1.325170   0.000000   1.041516
Au   2.128359  -0.000000  -1.980884
Au  -3.835691  -0.000000   1.772554
Au   4.728838   0.000000  -1.849276
Au  -1.907732   0.000000   3.579023
Au   0.338387   0.000000  -3.905092
Au   1.224338  -0.000000   0.529135
Au  -3.163017   0.000000  -0.888463
Au   3.246993  -0.000000   2.266558
Au  -2.225307  -0.000000  -3.385945
Au  -2.894993   2.151606   0.596563
Au   3.435562   1.333838  -0.018308
Au   3.435562  -1.333838  -0.018308
Au  -2.894993  -2.151606   0.596563
Au  -2.086506  -2.167108  -1.920415
Au   1.848933  -2.150657   1.920575
Au   1.848933   2.150657   1.920575
Au  -2.086506   2.167108  -1.920415
