20
-1542.67677800
Au   0.000000   0.000000   1.287966
Au  -0.000000  -0.000000  -1.287966
Au  -0.000000   0.000000   3.851042
Au   0.000000   0.000000  -3.851042
Au  -5.560305  -5.560305   0.000000
Au   5.560305   5.560305   0.000000
Au   5.560305  -5.560305   0.000000
Au  -5.560305   5.560305  -0.000000
Au   3.755064   3.755064  -0.000000
Au  -3.755064  -3.755064   0.000000
Au  -3.755064   3.755064   0.000000
Au   3.755064  -3.755064   0.000000
Au   1.270202   3.070013  -0.000000
Au  -1.270202  -3.070013  -0.000000
Au  -3.070013   1.270202   0.000000
Au   3.070013  -1.270202   0.000000
Au  -1.270202   3.070013  -0.000000
Au   1.270202  -3.070013   0.000000
Au   3.070013   1.270202  -0.000000
Au  -3.070013  -1.270202  -0.000000
