20
-1553.89918900
Au   1.412079  -0.000000   3.727839
Au  -0.843953  -0.000000  -3.220083
Au   2.688418  -0.000000   1.431960
Au  -3.448787  -0.000000  -3.130520
Au  -3.288266  -0.000000   1.439111
Au   1.554310  -0.000000  -2.194498
Au  -0.913010  -0.000000   2.546289
Au   3.850296  -0.000000  -0.897861
Au  -2.104583  -0.000000  -0.913566
Au   0.298945  -0.000000   0.163233
Au   3.805325  -0.000000  -3.500255
Au  -5.498222  -0.000000   2.774597
Au   0.883511   1.904631   1.987000
Au  -0.254210   1.963871  -1.550876
Au  -0.254210  -1.963871  -1.550876
Au   0.883511  -1.904631   1.987000
Au  -1.499764   1.943351   0.809363
Au   2.114186   1.936074  -0.358610
Au   2.114186  -1.936074  -0.358610
Au  -1.499764  -1.943351   0.809363
