20
-1550.46435400
Au   1.221882  -0.000000  -0.450166
Au  -1.221911  -0.000000   0.450035
Au  -0.122638   0.000000  -7.284361
Au   0.117606  -0.000000   7.283234
Au   3.641751   0.000000  -1.406561
Au  -3.641344  -0.000000   1.407412
Au  -0.414753  -0.000000  -4.704955
Au   0.414950   0.000000   4.704723
Au   4.021774   0.000000  -3.974201
Au  -4.014454  -0.000000   3.966309
Au   1.593004  -0.000000  -3.033431
Au  -1.591153   0.000000   3.031990
Au   1.999697   0.000000  -5.769596
Au  -1.990689  -0.000000   5.757684
Au   0.846214   0.000000   2.127375
Au  -0.845312  -0.000000  -2.127169
Au   4.214030  -1.333106  -6.202118
Au  -4.221342  -1.288952   6.212957
Au  -4.221342   1.288952   6.212957
Au   4.214030   1.333106  -6.202118
