20
-1555.14497900
Au   0.862121  -0.000000   2.016387
Au  -1.397362   0.000000  -3.761768
Au   3.106645   0.000000   0.628304
Au  -3.370108  -0.000000   1.059876
Au  -4.133592   0.000000   3.542843
Au   3.478033  -0.000000  -1.965651
Au   1.171363  -0.000000  -3.270376
Au  -1.568325  -0.000000   2.987471
Au   0.814825  -0.000000  -0.677438
Au  -2.294161   0.000000  -1.318382
Au   1.469171   2.220133   0.756705
Au   1.469171  -2.220132   0.756705
Au  -0.581895   1.868165  -2.064607
Au  -0.122690   2.260403   2.877758
Au  -0.122690  -2.260403   2.877758
Au  -0.581895  -1.868165  -2.064607
Au  -1.113373   1.393625   0.609456
Au   2.014067   2.136501  -1.799945
Au   2.014067  -2.136501  -1.799945
Au  -1.113373  -1.393625   0.609456
