20
-1555.51959300
Au   1.465411  -0.000000   1.846599
Au  -0.261304  -0.000000  -0.259132
Au  -4.170279  -0.000000   2.275900
Au   3.456534  -0.000000  -2.987268
Au  -1.561509  -0.000000   2.163988
Au   0.786296  -0.000000  -2.812635
Au   0.193466  -0.000000   4.131037
Au  -1.831017  -0.000000  -2.410923
Au  -3.009182  -0.000000  -0.081584
Au   2.492832  -0.000000  -0.560018
Au   1.142039   2.213317   0.268454
Au   1.142039  -2.213317   0.268454
Au  -1.609369  -2.197896   0.500705
Au   2.174251  -2.130048  -2.153454
Au   2.174251   2.130048  -2.153454
Au  -1.609369   2.197896   0.500705
Au  -0.463078  -2.185723  -1.876514
Au  -0.024467  -2.110501   2.607827
Au  -0.024467   2.110501   2.607827
Au  -0.463078   2.185723  -1.876514
