20
-1550.30685500
Au   4.284289  -0.000000   1.133287
Au  -4.284289   0.000000  -1.133287
Au   0.197458   0.000000  -1.847375
Au  -0.197458  -0.000000   1.847375
Au  -0.262550  -0.000000  -4.422911
Au   0.262550   0.000000   4.422911
Au   2.269003   0.000000   2.772567
Au  -2.269003  -0.000000  -2.772567
Au  -3.912932   0.000000   1.462611
Au   3.912932  -0.000000  -1.462611
Au   2.208421  -0.000000  -3.544223
Au  -2.208421   0.000000   3.544223
Au  -1.850764  -0.000000  -0.171751
Au   1.850764   0.000000   0.171751
Au  -0.000000   1.878912   0.000000
Au   0.000000  -1.878912  -0.000000
Au  -3.659422  -2.094554   2.993414
Au   3.659422  -2.094554  -2.993414
Au   3.659422   2.094554  -2.993414
Au  -3.659422   2.094554   2.993414
