20
-1553.75853500
Au  -6.060555  -0.218441   4.072790
Au   4.768073  -0.540203  -4.767217
Au   0.313264   0.418276  -3.660634
Au   1.033590   0.017763   3.691810
Au   1.431217   1.012163  -1.318850
Au  -1.250261   0.010338   2.385393
Au   3.088321  -0.993372  -0.600844
Au  -3.077343  -0.065107   0.274999
Au  -3.835067  -0.137693   2.770007
Au   2.757011  -0.403496  -3.140824
Au   1.215455  -0.192965   1.069405
Au  -1.616426  -0.082212  -1.946621
Au  -0.885229   1.329351   0.142964
Au  -0.944170  -1.556643   0.190685
Au   0.786162   3.296926  -0.149704
Au   1.394719  -2.771432   0.324826
Au   0.714802  -1.474485  -1.852472
Au   0.188415  -2.183117   2.554287
Au   0.579579   2.109818   2.199551
Au  -0.601555   2.424530  -2.239552
