20
-1550.55172700
Au   3.317067   0.000000   0.989897
Au  -3.317067   0.000000  -0.989897
Au  -2.958392   0.000000  -3.570725
Au   2.958392  -0.000000   3.570725
Au   1.585636  -0.000000  -3.086132
Au  -1.585636  -0.000000   3.086132
Au  -1.180040   0.000000   0.491115
Au   1.180040   0.000000  -0.491115
Au  -0.836528   0.000000  -2.102724
Au   0.836528   0.000000   2.102724
Au  -4.142619  -0.000000   3.455801
Au   4.142619  -0.000000  -3.455801
Au  -0.000000  -2.269454  -0.000000
Au  -0.000000   2.269454  -0.000000
Au   0.000000   4.844414  -0.000000
Au   0.000000  -4.844414   0.000000
Au  -3.252895  -1.303926   1.356289
Au   3.252895  -1.303926  -1.356289
Au   3.252895   1.303926  -1.356289
Au  -3.252895   1.303926   1.356289
