20
-1553.88473000
Au  -0.558140  -0.000000  -4.068006
Au  -1.447054  -0.000000  -1.571739
Au  -1.192786  -0.000000   3.718779
Au   1.173988  -0.000000  -2.008144
Au  -1.524269  -0.000000   1.102771
Au   2.025357   0.000000   0.537967
Au   0.015822  -1.745246  -0.164794
Au   0.015822   1.745246  -0.164794
Au  -0.423894   2.201200  -2.720221
Au   0.617388   1.306187   2.354584
Au   0.617388  -1.306187   2.354584
Au  -0.423894  -2.201200  -2.720221
Au  -1.379009   2.889656   1.823373
Au   1.702245   3.162384  -1.569785
Au   1.702245  -3.162384  -1.569785
Au  -1.379009  -2.889656   1.823373
Au   3.461946   1.291289  -1.267341
Au  -3.233046   1.292485   2.688370
Au  -3.233046  -1.292485   2.688370
Au   3.461946  -1.291289  -1.267341
