20
-1554.51428500
Au   0.408727   0.000000   2.811150
Au   0.932646   0.000000  -2.029421
Au   1.642462   0.000000   0.525597
Au  -2.643727   0.000000  -0.719754
Au  -0.547863   3.806550   0.158556
Au  -0.547863  -3.806550   0.158556
Au  -0.816203  -1.295857   0.763371
Au  -0.816203   1.295857   0.763371
Au   1.233124   2.462699   1.869181
Au  -1.005683   1.928115  -1.827898
Au  -1.005683  -1.928115  -1.827898
Au   1.233124  -2.462699   1.869181
Au  -0.000577   1.309760  -4.143588
Au   2.495870   1.304250   3.827095
Au   2.495870  -1.304250   3.827095
Au  -0.000577  -1.309760  -4.143588
Au   1.365729   2.277751  -0.751872
Au  -2.894450   2.598168  -0.188631
Au  -2.894450  -2.598168  -0.188631
Au   1.365729  -2.277751  -0.751872
