20
-1553.44861100
Au   0.615474   0.000000  -2.767831
Au  -0.615474   0.000000   2.767831
Au  -2.247798   0.000000   0.734757
Au   2.247798   0.000000  -0.734757
Au   1.411573   0.000000   4.427955
Au  -1.411573   0.000000  -4.427955
Au   1.886428   0.000000   1.846933
Au  -1.886428   0.000000  -1.846933
Au   0.000000  -1.262210  -0.000000
Au   0.000000   1.262210  -0.000000
Au   0.000000  -3.824151   0.000000
Au   0.000000   3.824151   0.000000
Au  -1.463960   2.375899   1.850340
Au   1.463960   2.375899  -1.850340
Au   1.463960  -2.375899  -1.850340
Au  -1.463960  -2.375899   1.850340
Au   2.261707   2.374721   0.651975
Au  -2.261707   2.374721  -0.651975
Au  -2.261707  -2.374721  -0.651975
Au   2.261707  -2.374721   0.651975
