20
-1550.45652900
Au   0.550989  -0.070314   1.168632
Au  -0.550740   0.070016  -1.168892
Au   4.956619  -0.208562   5.013134
Au  -4.956793   0.209401  -5.013146
Au   0.686020  -0.251694   3.772341
Au  -0.686042   0.250908  -3.772657
Au  -0.987379   0.103252   5.717132
Au   0.988343  -0.102218  -5.717226
Au  -0.423203   4.522589  -0.905753
Au   0.422484  -4.522887   0.906110
Au  -0.050589  -2.212845  -0.128057
Au   0.051937   2.212448   0.127244
Au  -3.055303   1.391824  -3.717205
Au   2.933991   1.200740   4.195760
Au   3.055643  -1.391661   3.717157
Au  -2.935248  -1.200745  -4.195086
Au  -1.232879  -2.045980  -2.447587
Au   1.185846  -2.389283   2.205557
Au   1.231864   2.046115   2.447968
Au  -1.185559   2.388897  -2.205428
