20
-1555.18177900
Au   0.316812  -0.000000   0.180367
Au   0.515121  -0.000001  -2.580480
Au  -1.933651  -0.000000  -1.504469
Au   1.430107  -0.000000   2.677874
Au   2.748740  -1.848638   1.374785
Au  -2.990419  -2.481070  -1.287707
Au  -2.990419   2.481070  -1.287707
Au   2.748740   1.848638   1.374785
Au  -2.011978   1.310686   0.825745
Au   2.261550   1.349831  -1.151301
Au   2.261550  -1.349831  -1.151301
Au  -2.011978  -1.310686   0.825745
Au   0.199504  -2.194856   1.939826
Au  -0.393135  -2.129531  -1.421471
Au  -0.393136   2.129532  -1.421470
Au   0.199504   2.194856   1.939826
Au   1.305729  -3.553815  -0.030419
Au  -1.284185  -3.804394   0.363895
Au  -1.284184   3.804394   0.363895
Au   1.305729   3.553815  -0.030419
