20
-1555.43327900
Au   2.189282  -0.000000   0.859302
Au  -2.189282  -0.000000  -0.859302
Au   3.019298  -0.000000  -1.685093
Au  -3.019299  -0.000000   1.685093
Au  -0.475763  -0.000008   1.180432
Au   0.475764  -0.000007  -1.180434
Au   1.058054  -0.000000   3.271130
Au  -1.058053  -0.000000  -3.271129
Au   1.273419   1.391006  -3.237797
Au  -1.273419   1.391007   3.237798
Au  -1.273418  -1.391005   3.237795
Au   1.273418  -1.391005  -3.237794
Au  -1.794847  -2.231285   0.730798
Au   1.794847  -2.231285  -0.730798
Au   1.794848   2.231288  -0.730797
Au  -1.794849   2.231288   0.730797
Au   0.798679  -2.233228   1.712468
Au  -0.798679  -2.233228  -1.712468
Au  -0.798681   2.233231  -1.712469
Au   0.798681   2.233231   1.712469
