20
-1553.68382300
Au   0.479137  -0.092543   1.997520
Au  -0.849824   0.417305  -1.829257
Au   3.013024  -0.500699   1.380802
Au  -2.723912  -1.408790  -1.742972
Au  -1.749566  -0.651498   0.598535
Au   1.390445   0.498690  -0.418448
Au   3.623494  -0.676391  -1.153390
Au  -3.764391  -0.523729   2.272043
Au  -1.489412  -1.332473   3.245013
Au   1.475341  -0.828798  -2.712632
Au   2.847589   1.398688  -2.534345
Au  -1.823981   1.182698   2.602723
Au   2.529535   3.925574  -3.004173
Au  -1.623484   3.701353   2.033796
Au  -0.005601  -3.317176   3.971987
Au  -0.876360  -1.547927  -3.577728
Au  -0.693477   1.928835   0.354811
Au   0.611556   2.606917  -1.845052
Au  -0.210364  -2.054292  -1.077348
Au  -0.159749  -2.725747   1.438112
