20
-1551.65753500
Au  -0.161747   0.000001  -2.245122
Au  -0.721267  -0.000030   0.509537
Au  -0.438243   2.469146   1.418768
Au  -0.438400  -2.469041   1.418665
Au   2.692071  -1.301709   4.324462
Au  -2.259955  -1.292641  -3.345580
Au  -2.259947   1.292778  -3.345596
Au   2.692163   1.301908   4.324485
Au   3.756815   1.951221  -0.096780
Au  -2.343938   3.906066   0.311748
Au  -2.344051  -3.906252   0.311623
Au   3.756855  -1.951262  -0.096836
Au   1.262125  -1.392363  -0.461964
Au  -1.199775  -2.054544  -1.072763
Au  -1.199793   2.054509  -1.072754
Au   1.262273   1.392303  -0.461983
Au   2.102078  -2.125138   1.929487
Au  -3.129706  -3.436072  -2.139519
Au  -3.129635   3.435961  -2.139576
Au   2.102078   2.125158   1.929697
