20
-1555.30971200
Au   0.767187  -0.000000   1.049579
Au  -0.767187   0.000000  -1.049579
Au   1.813866   0.000000  -1.465618
Au  -1.813866  -0.000000   1.465618
Au  -3.351989   0.000000  -0.661767
Au   3.351989  -0.000000   0.661767
Au   0.000000   4.023670   0.000000
Au   0.000000  -4.023670  -0.000000
Au   2.288808   1.396945   2.639237
Au  -2.288808   1.396945  -2.639237
Au  -2.288808  -1.396945  -2.639237
Au   2.288808  -1.396945   2.639237
Au  -0.203465   2.266674   1.939583
Au   0.203465   2.266674  -1.939583
Au   0.203465  -2.266674  -1.939583
Au  -0.203465  -2.266674   1.939583
Au   1.934304  -2.217271   0.108087
Au  -1.934304  -2.217271  -0.108087
Au  -1.934304   2.217271  -0.108087
Au   1.934304   2.217271   0.108087
