20
-1552.90386500
Au   2.745286   0.000000  -3.079279
Au  -2.745286   0.000000   3.079279
Au  -1.637489  -0.000000   0.740048
Au   1.637489   0.000000  -0.740048
Au   0.860989  -0.000000   1.747627
Au  -0.860989  -0.000000  -1.747627
Au  -0.000000   1.997355   0.000000
Au  -0.000000  -1.997355   0.000000
Au   1.782855  -2.349972  -1.906389
Au  -1.782855  -2.349972   1.906389
Au  -1.782855   2.349972   1.906389
Au   1.782855   2.349972  -1.906389
Au   2.475606   1.994341   0.795921
Au  -2.475606   1.994341  -0.795921
Au  -2.475606  -1.994341  -0.795921
Au   2.475606  -1.994341   0.795921
Au   4.045932  -1.292421  -1.165379
Au  -4.045932  -1.292421   1.165379
Au  -4.045932   1.292421   1.165379
Au   4.045932   1.292421  -1.165379
