20
-1555.43857600
Au  -0.717732   0.000000   3.678106
Au   0.717732  -0.000000  -3.678106
Au   3.053895  -0.000000  -2.171764
Au  -3.053895   0.000000   2.171764
Au  -0.689292   0.000001   1.069739
Au   0.689292  -0.000000  -1.069739
Au  -0.000000   2.349742   0.000000
Au   0.000000  -2.349742  -0.000000
Au  -2.592364  -1.377090  -0.106525
Au   2.592363  -1.377089   0.106525
Au   2.592364   1.377090   0.106525
Au  -2.592363   1.377089  -0.106525
Au   1.443650  -2.187991  -2.237650
Au  -1.443650  -2.187991   2.237650
Au  -1.443650   2.187991   2.237650
Au   1.443650   2.187991  -2.237650
Au   1.165658  -1.378060   2.318818
Au  -1.165659  -1.378060  -2.318818
Au  -1.165658   1.378060  -2.318818
Au   1.165658   1.378060   2.318818
