20
-1554.08965100
Au  -0.219113  -0.000004  -1.938624
Au   0.219113   0.000004   1.938624
Au   2.818568  -0.000042   2.665537
Au  -2.818567   0.000043  -2.665536
Au  -1.933135  -0.000006   0.073555
Au   1.933133   0.000006  -0.073555
Au  -0.000060  -1.861084  -0.000033
Au   0.000072   1.861084   0.000039
Au  -1.803920  -2.230498  -1.837834
Au   1.803971  -2.230465   1.837895
Au   1.803916   2.230498   1.837829
Au  -1.803975   2.230464  -1.837900
Au  -4.087579  -1.300615  -0.754553
Au   4.087575  -1.300612   0.754559
Au   4.087580   1.300616   0.754553
Au  -4.087575   1.300612  -0.754559
Au   2.401363  -2.669279  -0.681197
Au  -2.401340  -2.669268   0.681178
Au  -2.401365   2.669280   0.681199
Au   2.401338   2.669267  -0.681176
