20
-1552.52874000
Au   3.165538  -0.000000   0.446587
Au  -3.165538  -0.000000  -0.446587
Au   0.851829   0.000000   1.748931
Au  -0.851829   0.000000  -1.748931
Au   5.086826   1.298279   4.088407
Au  -5.086826   1.298279  -4.088407
Au  -5.086826  -1.298279  -4.088407
Au   5.086826  -1.298279   4.088407
Au   0.900967  -2.625674   1.588945
Au  -0.900967  -2.625674  -1.588945
Au  -0.900967   2.625674  -1.588945
Au   0.900967   2.625674   1.588945
Au   1.188442   1.319908  -0.654258
Au  -1.188442   1.319908   0.654258
Au  -1.188442  -1.319908   0.654258
Au   1.188442  -1.319908  -0.654258
Au   2.885546  -1.336839   2.715138
Au  -2.885546  -1.336839  -2.715138
Au  -2.885546   1.336839  -2.715138
Au   2.885546   1.336839   2.715138
