20
-1555.48570300
Au   1.287253   0.054654   2.753681
Au  -1.287163   0.054626  -2.755128
Au  -0.000234   2.818211   0.000185
Au  -0.000209  -2.603837   0.000167
Au  -0.631622   1.779230   2.352409
Au   0.631503   1.778850  -2.351903
Au   1.016645  -0.803944  -1.741966
Au  -1.017031  -0.803831   1.742265
Au   1.832057   2.518301   1.850329
Au  -1.832027   2.517606  -1.850266
Au  -0.892991  -2.543131  -2.456694
Au   0.893256  -2.543135   2.456645
Au  -2.227893   1.162830   0.379741
Au   2.227194   1.161940  -0.378688
Au   2.298904  -1.330096   0.542211
Au  -2.297939  -1.328991  -0.542911
Au  -3.686361   0.664052  -1.771749
Au   3.686387   0.664768   1.772155
Au   3.289379  -1.609064   2.976166
Au  -3.289107  -1.609039  -2.976646
