20
-1552.69284000
Au   1.266678  -0.000000  -4.751863
Au  -1.266678  -0.000000   4.751863
Au   0.000000   1.683926  -0.000000
Au  -0.000000  -1.683926  -0.000000
Au   0.506012   1.379508  -2.604734
Au  -0.506012   1.379508   2.604734
Au  -0.506012  -1.379508   2.604734
Au   0.506012  -1.379508  -2.604734
Au   3.018404  -1.332051  -3.353729
Au  -3.018404  -1.332051   3.353729
Au  -3.018404   1.332051   3.353729
Au   3.018404   1.332051  -3.353729
Au  -1.953868   1.344524  -1.744671
Au   1.953868   1.344524   1.744671
Au   1.953868  -1.344524   1.744671
Au  -1.953868  -1.344524  -1.744671
Au  -2.510925  -1.429367   0.803590
Au   2.510925  -1.429367  -0.803590
Au   2.510925   1.429367  -0.803590
Au  -2.510925   1.429367   0.803590
