20
-1552.66150700
Au  -0.000001  -1.318467  -0.000001
Au  -0.000001   1.318467  -0.000001
Au  -0.000000  -5.045852  -0.000000
Au  -0.000000   5.045852  -0.000000
Au   0.241680  -1.294301  -3.642833
Au  -0.241680  -1.294301   3.642833
Au  -0.241680   1.294301   3.642833
Au   0.241680   1.294301  -3.642833
Au   1.834652   3.189918   0.097001
Au  -1.834652   3.189917  -0.097002
Au  -1.834652  -3.189917  -0.097002
Au   1.834652  -3.189918   0.097001
Au  -1.744864  -1.335798  -1.942435
Au   1.744865  -1.335798   1.942436
Au   1.744864   1.335798   1.942436
Au  -1.744864   1.335799  -1.942435
Au  -0.117348  -3.251744   1.920656
Au   0.117348  -3.251745  -1.920655
Au   0.117348   3.251745  -1.920655
Au  -0.117348   3.251744   1.920655
