20
-1552.64558100
Au   0.000000  -0.000000   5.047089
Au   0.000000   0.000000  -5.047089
Au   0.000000  -0.000000  -1.330849
Au   0.000000   0.000000   1.330849
Au   1.905852   0.000467  -3.237904
Au  -1.905852  -0.000467  -3.237904
Au   0.000167   1.856328  -3.189126
Au  -0.000167  -1.856328  -3.189126
Au  -1.905851  -0.000467   3.237904
Au   1.905851   0.000467   3.237904
Au   0.000167   1.856328   3.189126
Au  -0.000167  -1.856328   3.189126
Au  -1.901183  -1.833480  -1.313063
Au   1.901183   1.833480  -1.313063
Au   1.900867  -1.831992  -1.313412
Au  -1.900867   1.831992  -1.313412
Au   1.900867  -1.831992   1.313412
Au  -1.900867   1.831992   1.313412
Au  -1.901183  -1.833480   1.313063
Au   1.901183   1.833480   1.313063
