20
-1549.64973400
Au  -3.216877  -3.460629   1.305882
Au   3.216877  -3.460629  -1.305882
Au   3.216877   3.460629  -1.305882
Au  -3.216877   3.460629   1.305882
Au  -4.534037  -1.299344   1.896356
Au   4.534038  -1.299344  -1.896356
Au   4.534038   1.299344  -1.896356
Au  -4.534038   1.299345   1.896356
Au   0.643064  -1.302557   2.111167
Au  -0.643064  -1.302557  -2.111167
Au  -0.643064   1.302557  -2.111167
Au   0.643064   1.302557   2.111167
Au  -0.626540   3.375626   1.142876
Au   0.626540   3.375626  -1.142876
Au   0.626540  -3.375626  -1.142876
Au  -0.626540  -3.375626   1.142876
Au   1.947366   1.315033  -2.106854
Au  -1.947366   1.315033   2.106854
Au  -1.947365  -1.315033   2.106854
Au   1.947366  -1.315033  -2.106854
