20
-1553.28568800
Au  -0.934970  -1.281089  -0.870837
Au   0.934970  -1.281089   0.870837
Au   0.934970   1.281089   0.870837
Au  -0.934970   1.281089  -0.870837
Au   0.240587  -3.361819   2.262766
Au  -0.240587  -3.361819  -2.262766
Au  -0.240587   3.361819  -2.262766
Au   0.240587   3.361819   2.262766
Au  -1.452215   1.302984  -3.430383
Au   1.452215   1.302984   3.430383
Au   1.452215  -1.302984   3.430383
Au  -1.452215  -1.302984  -3.430383
Au   2.783128   2.871851   1.823216
Au  -2.783128   2.871851  -1.823216
Au  -2.783128  -2.871851  -1.823216
Au   2.783128  -2.871851   1.823216
Au  -1.308682   3.663290   0.180478
Au   1.308682   3.663290  -0.180478
Au   1.308682  -3.663290  -0.180478
Au  -1.308682  -3.663290   0.180478
