20
-1548.21078400
Au  -0.000000   0.000000   1.946134
Au  -0.000000   0.000000  -1.946134
Au  -0.000000   0.000000  -4.513142
Au   0.000000   0.000000   4.513142
Au   1.633300   0.823879   0.000000
Au  -1.633300  -0.823879  -0.000000
Au  -0.823879   1.633300  -0.000000
Au   0.823879  -1.633300   0.000000
Au  -3.582325  -2.516319   0.000000
Au   3.582325   2.516319   0.000000
Au   2.516319  -3.582325   0.000000
Au  -2.516319   3.582325  -0.000000
Au  -3.452449   5.971698  -0.000000
Au   3.452449  -5.971698   0.000000
Au  -5.971698  -3.452449  -0.000000
Au   5.971698   3.452449  -0.000000
Au  -1.113729  -3.347509  -0.000000
Au   1.113729   3.347509   0.000000
Au   3.347509  -1.113729  -0.000000
Au  -3.347509   1.113729   0.000000
