20
-1550.92435700
Au   0.000000   0.000000  -4.501113
Au  -0.000000   0.000000   4.501113
Au   0.000000   0.000000   1.934189
Au   0.000000  -0.000000  -1.934189
Au  -3.674663  -3.887569   0.000000
Au   3.674663   3.887569  -0.000000
Au   3.887569  -3.674663   0.000000
Au  -3.887569   3.674663  -0.000000
Au  -4.256390   1.115076  -0.000000
Au   4.256390  -1.115076   0.000000
Au  -1.115076  -4.256390  -0.000000
Au   1.115076   4.256390   0.000000
Au   3.349999   1.318886  -0.000000
Au  -3.349999  -1.318886  -0.000000
Au  -1.318886   3.349999  -0.000000
Au   1.318886  -3.349999   0.000000
Au   0.717705   1.696263  -0.000000
Au  -0.717705  -1.696263   0.000000
Au  -1.696263   0.717705  -0.000000
Au   1.696263  -0.717705  -0.000000
