20
-1552.64555600
Au   0.000000  -0.000000  -1.330819
Au   0.000000  -0.000000   1.330819
Au   0.000000  -0.000000   5.047922
Au   0.000000   0.000000  -5.047922
Au  -0.119313   1.852022  -3.190100
Au   0.119313  -1.852022  -3.190100
Au  -1.901981  -0.121368  -3.237299
Au   1.901981   0.121368  -3.237299
Au   0.119313  -1.852022   3.190100
Au  -0.119313   1.852022   3.190100
Au   1.901981   0.121368   3.237299
Au  -1.901981  -0.121368   3.237299
Au   2.013665  -1.709630   1.313001
Au  -2.013665   1.709630   1.313001
Au   1.777421   1.951756   1.313616
Au  -1.777421  -1.951756   1.313616
Au  -2.013665   1.709630  -1.313001
Au   2.013665  -1.709630  -1.313001
Au  -1.777421  -1.951756  -1.313616
Au   1.777421   1.951756  -1.313616
