20
-1551.62010400
Au   4.137336   3.403087  -0.000000
Au  -4.137336  -3.403087  -0.000000
Au  -2.782400   3.706933  -0.000000
Au   2.782400  -3.706933  -0.000000
Au   3.300976  -1.070099  -0.000000
Au  -3.300976   1.070099  -0.000000
Au   1.561315   3.093930  -0.000000
Au  -1.561315  -3.093930  -0.000000
Au   0.825797  -2.045782  -0.000000
Au  -0.825797   2.045782  -0.000000
Au   1.189499   0.481480  -0.000000
Au  -1.189499  -0.481480  -0.000000
Au   0.518762  -4.272800  -1.307881
Au  -0.518762   4.272800  -1.307881
Au   3.288493   1.299061  -1.310492
Au  -3.288493  -1.299061  -1.310492
Au  -0.518762   4.272800   1.307881
Au   0.518762  -4.272800   1.307881
Au  -3.288493  -1.299061   1.310492
Au   3.288493   1.299061   1.310492
