20
-1550.70130000
Au  -0.000010   0.000001  -1.417783
Au  -0.000011   0.000003   1.418261
Au  -0.000001   0.000001   4.054827
Au   0.000001  -0.000001  -4.054601
Au   1.707808   1.347126  -0.011015
Au  -1.707795  -1.347116  -0.011017
Au   1.707564  -1.346910   0.011612
Au  -1.707551   1.346898   0.011607
Au   3.358497   2.897574   1.270342
Au  -3.358500  -2.897576   1.270347
Au   3.358581  -2.896018  -1.270902
Au  -3.358579   2.896017  -1.270903
Au  -3.276653  -2.946016  -1.323995
Au   3.276651   2.946015  -1.323988
Au  -3.275701   2.946589   1.323427
Au   3.275695  -2.946583   1.323423
Au  -1.702364  -1.484358  -2.769030
Au   1.702364   1.484357  -2.769035
Au  -1.701467   1.485580   2.769213
Au   1.701472  -1.485585   2.769209
