20
-1552.27764200
Au   0.000001   0.000000   4.588884
Au   0.000001  -0.000000  -4.588884
Au   0.000000  -0.000000   1.950472
Au  -0.000000   0.000000  -1.950472
Au  -1.615685  -1.615685   3.304599
Au   1.615685   1.615685   3.304602
Au  -1.615685   1.615685  -3.304598
Au   1.615685  -1.615685  -3.304602
Au   2.018919   2.018927  -1.631190
Au  -2.018936  -2.018930  -1.631211
Au   2.018918  -2.018925   1.631188
Au  -2.018936   2.018931   1.631212
Au  -2.404796  -2.404792   0.953540
Au   2.404787   2.404791   0.953532
Au  -2.404797   2.404793  -0.953541
Au   2.404787  -2.404791  -0.953531
Au  -1.881636  -0.000003  -0.000001
Au   1.881628  -0.000002   0.000001
Au   0.000030   1.881633  -0.000014
Au   0.000030  -1.881632   0.000015
