20
-1551.03529500
Au   0.000000  -0.000000   3.875472
Au   0.000000  -0.000000  -3.875472
Au  -0.000000   0.000000  -1.286601
Au  -0.000000   0.000000   1.286601
Au  -1.778882  -1.778882  -1.919682
Au   1.778882   1.778882  -1.919682
Au  -1.778882   1.778882   1.919682
Au   1.778882  -1.778882   1.919682
Au  -2.600138  -2.600138   0.422881
Au   2.600138   2.600138   0.422881
Au  -2.600138   2.600138  -0.422881
Au   2.600138  -2.600138  -0.422881
Au   1.619032   1.619032   2.612568
Au  -1.619032  -1.619032   2.612568
Au   1.619032  -1.619032  -2.612568
Au  -1.619032   1.619032  -2.612568
Au   2.414975  -0.000000  -0.000000
Au  -2.414975  -0.000000   0.000000
Au   0.000000  -2.414975   0.000000
Au  -0.000000   2.414975  -0.000000
