20
-1551.93673600
Au   0.000000  -0.000000   1.725997
Au   0.000001   0.000001  -1.936835
Au  -0.000000  -0.000000   6.223641
Au  -0.000001  -0.000001  -6.436800
Au   0.929997   0.930480  -4.219866
Au  -0.929996  -0.930478  -4.219871
Au   0.952132  -0.951597   4.007230
Au  -0.952132   0.951597   4.007230
Au  -1.866337  -1.864722  -2.006642
Au   1.866335   1.864720  -2.006645
Au  -1.885005   1.883018   1.745021
Au   1.885005  -1.883018   1.745021
Au  -1.942588  -0.022827  -0.147439
Au   1.942588   0.022827  -0.147439
Au   0.023545   1.942719  -0.147846
Au  -0.023545  -1.942719  -0.147847
Au  -4.107840   1.259407   0.489739
Au   4.107840  -1.259407   0.489739
Au  -1.260326   4.106081   0.491805
Au   1.260326  -4.106081   0.491805
