20
-1552.69981000
Au   0.178146  -0.804369  -4.232728
Au   0.864919  -0.210033   2.618387
Au   0.174739   0.024983  -6.707577
Au  -0.630358  -0.329969   4.772226
Au   0.838731   1.775037   4.423119
Au  -0.205989  -2.515163   3.438400
Au   0.168297  -3.297719  -3.444182
Au  -0.101894   1.767206  -4.792241
Au  -1.740888  -0.660392   2.405790
Au   1.270103   2.311195   1.908965
Au  -0.100907   1.093326  -2.298196
Au   0.140397  -1.416839  -1.656091
Au  -1.422629   0.104779  -0.129248
Au   1.178500   0.345833   0.014571
Au  -0.335941   2.557761  -0.167637
Au   0.050175  -2.025224   0.884492
Au  -3.776421   0.049329   0.979776
Au   3.181537   0.549163   1.677349
Au   0.316322   4.628955   1.233281
Au  -0.046839  -3.947859  -0.928457
