20
-1555.70671100
Au  -0.278924   0.309435   1.378239
Au  -0.279595  -0.306168  -1.375105
Au   0.466353   0.600937  -3.898028
Au   0.476636  -0.608678   3.893676
Au   2.081110   1.332222   0.353423
Au  -1.863892  -1.923137   0.256209
Au   2.078632  -1.344670  -0.359722
Au  -1.855800   1.935000  -0.251543
Au  -1.730500  -1.470723   2.838532
Au   1.385429   1.683182   2.946658
Au  -1.728965   1.481025  -2.834337
Au   1.369406  -1.693069  -2.950483
Au   2.382023   0.578391  -2.126552
Au  -3.035609  -0.189954  -1.308758
Au   0.444334  -2.256171   1.558498
Au   0.148419   2.970776   1.045307
Au  -3.032650   0.206628   1.315758
Au   2.389239  -0.591195   2.118919
Au   0.133281  -2.970877  -1.042061
Au   0.451073   2.257047  -1.558631
