20
-1555.55767400
Au  -0.886410  -1.111164   0.635679
Au   0.886410   1.111164   0.635679
Au  -1.382100   1.431873  -0.649961
Au   1.382100  -1.431873  -0.649961
Au  -0.830749  -1.033624  -2.041811
Au   0.830749   1.033624  -2.041811
Au  -1.386771   1.271992   1.995658
Au   1.386771  -1.271992   1.995658
Au  -3.137075  -0.730839   1.945682
Au   3.137075   0.730839   1.945682
Au  -3.700536   1.737147  -1.873173
Au   3.700536  -1.737147  -1.873173
Au  -0.904656  -0.980818   3.309060
Au   0.904656   0.980818   3.309060
Au  -1.571901   1.157567  -3.274541
Au   1.571901  -1.157567  -3.274541
Au  -3.095724  -0.589859  -0.760361
Au   3.095724   0.589859  -0.760361
Au  -3.715016   1.522341   0.713767
Au   3.715016  -1.522341   0.713767
