20
-1547.41730700
Au   0.922297   0.922297   2.264840
Au  -0.922297  -0.922297   2.264840
Au   0.922297  -0.922297  -2.264840
Au  -0.922297   0.922297  -2.264840
Au  -3.093116  -3.093116  -3.624345
Au   3.093116   3.093116  -3.624345
Au  -3.093116   3.093116   3.624345
Au   3.093116  -3.093116   3.624345
Au   1.610125   1.610125  -2.145259
Au  -1.610125  -1.610125  -2.145259
Au   1.610125  -1.610125   2.145259
Au  -1.610125   1.610125   2.145259
Au  -4.435967  -0.000000  -0.000000
Au   4.435967   0.000000  -0.000000
Au  -0.000000   4.435967   0.000000
Au   0.000000  -4.435967  -0.000000
Au  -1.858082   0.000000  -0.000000
Au   1.858082   0.000000   0.000000
Au   0.000000   1.858082   0.000000
Au  -0.000000  -1.858082  -0.000000
