20
-1552.55817000
Au  -0.916430  -0.916430  -2.306360
Au   0.916430   0.916430  -2.306360
Au  -0.916430   0.916430   2.306360
Au   0.916430  -0.916430   2.306360
Au   1.907149   0.000000  -0.000000
Au  -1.907149  -0.000000   0.000000
Au  -0.000000  -1.907149   0.000000
Au  -0.000000   1.907149   0.000000
Au  -4.626763   0.000000  -0.000000
Au   4.626763   0.000000   0.000000
Au  -0.000000   4.626763   0.000000
Au   0.000000  -4.626763   0.000000
Au   1.550289  -3.376333   1.643686
Au  -1.550289   3.376333   1.643686
Au  -3.376333  -1.550289  -1.643686
Au   3.376333   1.550289  -1.643686
Au  -1.550289  -3.376333  -1.643686
Au   1.550289   3.376333  -1.643686
Au   3.376333  -1.550289   1.643686
Au  -3.376333   1.550289   1.643686
