20
-1551.91718100
Au   0.000001  -0.000003   3.307861
Au   0.000019  -0.000066  -1.006377
Au   3.392126   3.598341  -2.302596
Au  -4.812337   1.138504  -2.302604
Au   1.420202  -4.736870  -2.302612
Au   1.769314   1.914198   3.475382
Au  -2.542400   0.575171   3.475379
Au   0.773086  -2.489365   3.475378
Au  -2.527831   0.434527  -1.327270
Au   0.887585  -2.406391  -1.327257
Au   1.640274   1.971923  -1.327282
Au  -1.551443   0.264184   1.102290
Au   0.546927  -1.475674   1.102277
Au   1.004507   1.211495   1.102283
Au  -0.832173   2.415229  -0.527885
Au  -1.675549  -1.928291  -0.527892
Au   2.507740  -0.486900  -0.527898
Au  -0.905859  -4.326683  -1.187057
Au   4.199913   1.378832  -1.187057
Au  -3.294102   2.947840  -1.187063
