20
-1556.29979400
Au  -0.092362  -0.104784   0.016829
Au  -0.267522  -0.176809  -2.591985
Au   0.555316   2.144978  -1.442126
Au  -2.499833  -1.050683  -1.256854
Au   1.921488  -1.335681  -1.384193
Au   2.711333   3.618176  -1.343861
Au  -4.434783   0.700417  -1.329962
Au   1.780475  -3.953156  -1.470460
Au   1.824279   2.451071   0.842481
Au  -2.971202   0.433435   0.838345
Au   1.112634  -2.688855   0.737994
Au  -0.421099  -2.560865  -1.360492
Au   2.931785   1.038458  -1.079900
Au  -1.952442   1.520207  -1.324740
Au   0.524191  -1.387072   2.893528
Au   0.885061   1.195719   2.911404
Au  -1.521854   0.207762   2.961284
Au  -0.857434   2.167800   1.072070
Au  -1.527562  -1.936734   1.164638
Au   2.299531  -0.283385   1.145998
