20
-1552.90897400
Au  -0.000009   0.000030   0.264592
Au  -0.000000   0.000000  -2.485714
Au  -1.278809  -2.295123   0.249120
Au   2.627036   0.040081   0.249122
Au  -1.348222   2.255028   0.249126
Au   1.513308   0.032036  -4.687895
Au  -0.784398   1.294545  -4.687893
Au  -0.728910  -1.326581  -4.687895
Au  -2.744828  -0.040937   3.739333
Au   1.407865  -2.356602   3.739311
Au   1.336969   2.397589   3.739360
Au  -2.453480  -0.036853   1.137660
Au   1.258671  -2.106358   1.137682
Au   1.194818   2.143210   1.137636
Au   2.693289   0.046407  -2.366806
Au  -1.386834   2.309252  -2.366808
Au  -1.306455  -2.355660  -2.366805
Au  -0.795325   1.331153   2.668954
Au  -0.755160  -1.354335   2.668962
Au   1.550474   0.023117   2.668959
