20
-1544.88179500
Au  -4.469056  -0.000000   0.000000
Au   4.469056   0.000000  -0.000000
Au  -0.000000  -4.469056  -0.000000
Au  -0.000000   4.469056  -0.000000
Au  -0.000000  -0.000000  -4.469056
Au   0.000000  -0.000000   4.469056
Au   1.906117  -0.000000   0.000000
Au  -1.906117   0.000000  -0.000000
Au  -0.000000   1.906117  -0.000000
Au  -0.000000  -1.906117  -0.000000
Au   0.000000  -0.000000   1.906117
Au  -0.000000   0.000000  -1.906117
Au  -1.863692  -1.863692  -1.863692
Au   1.863692   1.863692  -1.863692
Au   1.863692  -1.863692   1.863692
Au  -1.863692   1.863692   1.863692
Au   1.863692   1.863692   1.863692
Au  -1.863692  -1.863692   1.863692
Au  -1.863692   1.863692  -1.863692
Au   1.863692  -1.863692  -1.863692
