20
-1555.46970000
Au   0.000000   0.000000   1.962448
Au   0.000000   0.000000  -0.743616
Au   2.604571  -0.230646   1.297429
Au  -1.102547   2.370957   1.297430
Au  -1.502068  -2.140283   1.297429
Au  -2.604571   0.230646   1.297429
Au   1.102547  -2.370957   1.297430
Au   1.502068   2.140283   1.297429
Au  -3.359340   2.357574  -0.061838
Au  -0.362045  -4.088069  -0.061842
Au   3.721379   1.730487  -0.061836
Au   3.359340  -2.357574  -0.061838
Au   0.362045   4.088069  -0.061842
Au  -3.721379  -1.730487  -0.061836
Au   1.511756   2.154120  -1.438729
Au  -2.621401   0.232149  -1.438729
Au   1.109652  -2.386277  -1.438730
Au  -1.511756  -2.154120  -1.438729
Au   2.621401  -0.232149  -1.438729
Au  -1.109652   2.386277  -1.438730
