20
-1555.69435800
Au  -0.000000   0.000000   3.332999
Au  -0.000000   0.000000   0.627058
Au  -0.133620   2.298906   2.077523
Au  -2.096392  -0.952322   2.078016
Au   2.642112  -1.595222   1.960777
Au   0.133620  -2.298906   2.077523
Au   2.096392   0.952322   2.078016
Au  -2.642112   1.595222   1.960777
Au  -2.711241   0.089262  -0.255184
Au   1.341420  -2.356948  -0.255832
Au   1.335453   2.211405  -0.134388
Au   2.711241  -0.089262  -0.255184
Au  -1.341420   2.356948  -0.255832
Au  -1.335453  -2.211405  -0.134388
Au  -2.107268   1.270757  -2.551714
Au  -0.100637  -2.669309  -2.450362
Au   2.319573   1.334507  -2.448865
Au   2.107268  -1.270757  -2.551714
Au   0.100637   2.669309  -2.450362
Au  -2.319573  -1.334507  -2.448865
