20
-1550.52539000
Au  -0.000003  -0.000002  -0.000000
Au   0.000000  -0.000000  -5.194703
Au   0.000000  -0.000000   5.194703
Au   0.000000   0.000001  -2.599983
Au   0.000000   0.000001   2.599983
Au   4.387573  -2.726555   0.000000
Au   0.167479   5.163028  -0.000000
Au  -4.555053  -2.436475  -0.000000
Au  -4.510522   0.152239  -0.000000
Au   2.123418  -3.982346   0.000000
Au   2.387104   3.830106  -0.000000
Au  -0.084571  -2.607154  -0.000000
Au   2.300149   1.230338   0.000000
Au  -2.215578   1.376817  -0.000000
Au  -2.377051  -3.836334  -0.000000
Au   4.510888  -0.140420  -0.000000
Au  -2.133836   3.976754   0.000000
Au  -2.271430  -1.214942  -0.000000
Au   2.187889  -1.359648   0.000000
Au   0.083545   2.574593   0.000000
