20
-1550.52538300
Au  -0.000399   0.000308   0.000000
Au   0.003080  -0.001530   2.599951
Au   0.003080  -0.001530  -2.599951
Au   0.000974  -0.000542   5.194695
Au   0.000974  -0.000542  -5.194695
Au   0.610717   2.502758  -0.000000
Au  -2.473254  -0.721634   0.000000
Au   1.861005  -1.780156  -0.000000
Au  -1.270801   4.330938  -0.000000
Au  -3.115561  -3.265353  -0.000000
Au   4.385058  -1.064993  -0.000000
Au   3.732642  -3.570475  -0.000000
Au   1.225119   5.018869   0.000000
Au  -4.959350  -1.447934  -0.000000
Au   2.503465   0.731419  -0.000000
Au  -1.885613   1.803326  -0.000000
Au  -0.619346  -2.533594   0.000000
Au   3.123032   3.257918  -0.000000
Au  -4.383450   1.076278  -0.000000
Au   1.258626  -4.333532   0.000000
