20
-1555.16757800
Au   0.210665  -0.133607   0.471037
Au   0.120910  -0.718448   3.078970
Au  -1.188470  -0.603319  -2.342381
Au  -0.571201   1.440187   4.368306
Au   0.669816  -0.369924  -4.229440
Au  -1.355067   1.683801  -0.849998
Au  -0.730009  -2.518127  -0.486440
Au   2.716441   0.776936   0.365574
Au   0.935852   2.651534  -0.094542
Au  -2.423403  -0.596589   0.047441
Au   2.145878  -1.521151  -0.733231
Au  -3.671738   1.660374   0.436817
Au   1.394980  -4.024174  -0.699925
Au   2.996241   3.139098   1.439869
Au  -1.603230   1.132758   1.970817
Au   1.018638  -2.587056   1.486784
Au   1.039590   1.682610   2.344354
Au  -3.484682   0.692884  -2.002456
Au   0.691041  -2.473713  -2.700440
Au   1.087748   0.685927  -1.871116
