20
-1554.65476800
Au   0.563775   0.072626   0.000000
Au  -0.857047  -0.877553   4.311937
Au  -0.857047  -0.877553  -4.311936
Au  -0.911161   0.698530  -2.233872
Au  -0.911161   0.698530   2.233872
Au   2.123074  -2.047076   0.000000
Au   1.667471   2.547945  -0.000001
Au  -2.151180  -0.217042  -0.000000
Au   3.223676   0.442380  -0.000000
Au  -1.063122   2.163707   0.000000
Au  -0.466978  -2.442320   0.000000
Au   4.701469  -1.695100   0.000000
Au   0.005920   4.574498   0.000000
Au  -3.103221  -2.658832  -0.000000
Au   0.757080  -1.501405   2.275524
Au   0.148567   3.093818   2.133382
Au  -1.887882  -1.783784   2.124358
Au   0.757081  -1.501405  -2.275523
Au   0.148565   3.093819  -2.133383
Au  -1.887881  -1.783784  -2.124358
