20
-1551.73928400
Au   0.000000   0.000000  -2.161101
Au   0.000000   0.000000   2.161101
Au  -6.063172  -0.144878   0.000000
Au   3.157054  -5.178422   0.000000
Au   2.906118   5.323300  -0.000000
Au   3.020027   2.699261   0.000000
Au  -3.847642   1.265789  -0.000000
Au   0.827615  -3.965051   0.000000
Au  -3.825016   3.852013  -0.000000
Au  -1.423433  -5.238568  -0.000000
Au   5.248449   1.386555   0.000000
Au   0.722543   1.319566   0.000000
Au  -1.504049  -0.034042   0.000000
Au   0.781506  -1.285523  -0.000000
Au   0.717630   3.934750   0.000000
Au  -3.766408  -1.345889   0.000000
Au   3.048778  -2.588860  -0.000000
Au  -1.544496   2.630716   0.000000
Au  -1.506019  -2.652930   0.000000
Au   3.050514   0.022215  -0.000000
