20
-1551.73928700
Au   0.000000   0.000000  -2.160960
Au   0.000000   0.000000   2.160960
Au   1.744588   3.599125  -0.000000
Au  -3.989228  -0.288705   0.000000
Au   2.244640  -3.310420  -0.000000
Au  -5.881157   1.482593  -0.000000
Au   1.656616  -5.834528  -0.000000
Au   4.224542   4.351935  -0.000000
Au   5.428117  -0.068924  -0.000000
Au  -2.654369   4.735350  -0.000000
Au  -2.773749  -4.666426  -0.000000
Au  -0.263744  -4.042339  -0.000000
Au   3.632641   1.792760  -0.000000
Au  -3.368896   2.249579  -0.000000
Au   2.945302  -0.795134  -0.000000
Au  -0.784045   2.948274  -0.000000
Au  -2.161258  -2.153139   0.000000
Au   1.049378   1.077996   0.000000
Au  -1.458261   0.369790   0.000000
Au   0.408883  -1.447786   0.000000
