20
-1553.73838200
Au   0.325166  -0.487842   0.239616
Au  -0.530627   0.711159  -4.767944
Au  -0.454544   0.606996   4.341889
Au  -0.063034   0.061042  -2.302179
Au   0.743017  -1.070492   2.766170
Au  -2.009951   0.537169  -0.444639
Au   1.813746  -2.524404   0.869709
Au   0.134465   2.057097  -0.450255
Au  -4.433261   0.592035  -1.414663
Au   2.928017  -4.007775  -0.981705
Au   0.931242   4.344662  -1.423880
Au  -4.052287  -0.108304   1.082980
Au   3.331491  -4.584321   1.521382
Au   1.428095   3.760829   1.082939
Au   1.434924  -1.985189  -1.657770
Au  -0.245336   2.630361  -3.012503
Au  -2.417311   1.114007  -3.000006
Au   2.233055  -3.119079   3.364121
Au   0.529986   1.505830   2.092201
Au  -1.626852  -0.033779   2.094534
