20
-1549.52871400
Au   0.000000  -0.000000  -0.000010
Au  -0.000059  -0.000019  -2.577074
Au  -0.000057  -0.000018   2.577089
Au   0.000002   0.000001  -5.194518
Au   0.000002   0.000001   5.194515
Au   2.664935  -0.165270   0.000000
Au  -1.189340   2.390538  -0.000000
Au  -1.475597  -2.225268  -0.000000
Au  -1.149446   2.307674   2.634558
Au  -1.423773  -2.149269   2.634558
Au   2.573257  -0.158391   2.634558
Au  -1.149446   2.307674  -2.634558
Au  -1.423772  -2.149269  -2.634558
Au   2.573259  -0.158391  -2.634557
Au   1.250743   1.889097   3.851683
Au  -2.261356   0.138626   3.851666
Au   1.010630  -2.027719   3.851677
Au   1.250744   1.889099  -3.851684
Au  -2.261357   0.138626  -3.851667
Au   1.010631  -2.027719  -3.851678
