20
-1552.27304200
Au  -0.000000  -0.000000  -2.272815
Au  -0.000000  -0.000000   2.272815
Au   3.681581   1.543304   0.000000
Au  -3.177331   2.416691   0.000000
Au  -0.504250  -3.959995   0.000000
Au  -2.319172  -2.094469  -0.000000
Au   2.973450  -0.961227  -0.000000
Au  -0.654278   3.055696   0.000000
Au   1.924271   3.442684  -0.000000
Au  -3.943587  -0.054874  -0.000000
Au   2.019316  -3.387810  -0.000000
Au   1.117109   0.972001   0.000000
Au  -1.400332   0.481444   0.000000
Au   0.283224  -1.453445  -0.000000
Au  -2.601745   1.026540   2.230686
Au   0.411863  -2.766447   2.230686
Au   2.189882   1.739907   2.230686
Au  -2.601745   1.026540  -2.230686
Au   0.411863  -2.766447  -2.230686
Au   2.189882   1.739907  -2.230686
