20
-1553.32424100
Au   0.000262  -0.000031   2.219458
Au   0.000262  -0.000031  -2.219458
Au  -2.637341   3.051446  -0.000000
Au  -1.323727  -3.809568  -0.000000
Au   3.960764   0.758285   0.000000
Au  -3.101020   0.463254  -0.000000
Au   1.149378  -2.917406   0.000000
Au   1.951403   2.453764   0.000000
Au  -0.173597   4.018537   0.000000
Au  -3.393265  -2.159312   0.000000
Au   3.567134  -1.858993   0.000000
Au  -0.932799  -1.222434   0.000000
Au   1.525024  -0.196927   0.000000
Au  -0.592262   1.419155   0.000000
Au   2.060139  -1.654253  -2.148289
Au   0.401965   2.611087  -2.148363
Au  -2.462212  -0.956704  -2.148298
Au   2.060139  -1.654253   2.148289
Au   0.401965   2.611087   2.148363
Au  -2.462212  -0.956704   2.148298
