20
-1554.66511700
Au   0.000001  -0.000000  -2.292354
Au   0.000001  -0.000000   2.292354
Au  -1.442303   0.515548   0.000000
Au   0.274681  -1.506839   0.000000
Au   1.167622   0.991299   0.000000
Au  -2.553072   2.863548   0.000000
Au  -1.203370  -3.642803   0.000000
Au   3.756445   0.779254   0.000000
Au   2.372513  -0.933255  -1.463202
Au  -0.378034   2.521284  -1.463204
Au  -1.994481  -1.588030  -1.463204
Au   2.372513  -0.933255   1.463202
Au  -0.378034   2.521284   1.463204
Au  -1.994481  -1.588030   1.463204
Au  -2.452881   1.095580  -2.325888
Au   0.277639  -2.672049  -2.325888
Au   2.175242   1.576467  -2.325889
Au  -2.452881   1.095580   2.325888
Au   0.277639  -2.672049   2.325888
Au   2.175242   1.576467   2.325889
