20
-1554.05815800
Au   0.005609   0.003992   1.309505
Au   0.005479   0.003904  -1.309459
Au   1.470393  -2.594719   0.000012
Au   1.111394   2.143924   0.000079
Au  -2.420769   0.110165  -0.000036
Au  -1.122432  -2.146916  -0.000017
Au   2.441135  -0.166002   0.000048
Au  -1.469504   2.563816   0.000036
Au  -0.006943   1.533865   3.588943
Au  -1.353176  -0.758780   3.414164
Au   1.290186  -0.765697   3.639726
Au  -0.006967   1.533838  -3.589045
Au  -1.353219  -0.758792  -3.414224
Au   1.290184  -0.765692  -3.639760
Au   0.091053  -2.611099   2.254749
Au   2.200023   1.233089   2.210514
Au  -2.231765   1.409562   2.248282
Au   0.091061  -2.611136  -2.254762
Au   2.199980   1.233023  -2.210475
Au  -2.231722   1.409653  -2.248280
