20
-1554.97959000
Au  -0.004851  -0.000855  -2.312213
Au  -0.004851  -0.000855   2.312213
Au   3.123210   0.506570  -0.000000
Au  -1.988345   2.459829  -0.000000
Au  -1.109363  -2.961476  -0.000000
Au   0.532675   1.454376  -0.000000
Au  -1.585699  -0.257156  -0.000000
Au   0.965100  -1.212471  -0.000000
Au   2.042934   1.662193   2.150365
Au  -2.454080   0.938760   2.182053
Au   0.436281  -2.639778   2.175749
Au   2.042934   1.662193  -2.150365
Au  -2.454080   0.938760  -2.182053
Au   0.436281  -2.639778  -2.175749
Au  -2.032147  -1.666063   2.182517
Au   2.463070  -0.931499   2.150087
Au  -0.419996   2.642406   2.175497
Au  -2.032147  -1.666063  -2.182517
Au   2.463069  -0.931499  -2.150087
Au  -0.419996   2.642406  -2.175497
