20
-1549.36960200
Au   0.000000  -0.000000   1.257079
Au  -0.000000  -0.000000  -1.257079
Au   0.000000  -0.000000  -3.805456
Au   0.000000   0.000000   3.805456
Au  -1.688865  -1.688865  -2.257937
Au   1.688865   1.688865  -2.257937
Au   1.688865  -1.688865  -2.257937
Au  -1.688865   1.688865  -2.257937
Au   1.688865  -1.688865   2.257937
Au  -1.688865   1.688865   2.257937
Au  -1.688865  -1.688865   2.257937
Au   1.688865   1.688865   2.257937
Au  -1.289909   3.107982   0.000000
Au   1.289909  -3.107982   0.000000
Au  -3.107982  -1.289909   0.000000
Au   3.107982   1.289909   0.000000
Au   1.289909   3.107982   0.000000
Au  -1.289909  -3.107982   0.000000
Au   3.107982  -1.289909   0.000000
Au  -3.107982   1.289909   0.000000
