20
-1552.59659800
Au   0.274966  -0.238963   1.898559
Au   0.274966  -0.238963  -1.898559
Au  -1.661130  -1.188445   3.465415
Au   2.540005  -0.611066   3.285041
Au  -1.336699   1.456567   3.321381
Au  -1.661130  -1.188445  -3.465415
Au   2.540005  -0.611066  -3.285041
Au  -1.336699   1.456567  -3.321381
Au   0.102736   2.321568   1.305058
Au  -0.952976  -2.491653   1.299438
Au   2.458598   1.107950   1.301132
Au   0.102736   2.321568  -1.305058
Au  -0.952976  -2.491653  -1.299438
Au   2.458598   1.107950  -1.301131
Au  -3.334699   0.412650  -4.605660
Au   0.651728  -2.411782  -3.374075
Au   1.257471   1.643175  -3.571010
Au  -3.334699   0.412650   4.605659
Au   0.651728  -2.411782   3.374075
Au   1.257471   1.643175   3.571010
