20
-1551.95615300
Au  -0.000000   0.000000  -1.299699
Au  -0.000000   0.000000   1.299699
Au   2.097947  -2.139902   3.381077
Au   0.804237   2.886829   3.381077
Au  -2.902183  -0.746923   3.381077
Au   2.097947  -2.139902  -3.381077
Au   0.804237   2.886829  -3.381077
Au  -2.902183  -0.746923  -3.381077
Au  -2.634920   0.802648   1.298199
Au   0.622347  -2.683232   1.298197
Au   2.012574   1.880584   1.298197
Au  -2.634920   0.802648  -1.298199
Au   0.622347  -2.683232  -1.298197
Au   2.012574   1.880584  -1.298197
Au   1.489963   0.381512   3.463119
Au  -1.075384   1.099587   3.463119
Au  -0.414580  -1.481102   3.463119
Au   1.489963   0.381512  -3.463119
Au  -1.075384   1.099587  -3.463119
Au  -0.414580  -1.481102  -3.463119
