20
-1545.00916300
Au   4.617425  -0.000000  -0.000000
Au  -4.617425   0.000000   0.000000
Au  -0.000000   4.617425   0.000000
Au   0.000000  -4.617425  -0.000000
Au  -0.000000   0.000000   4.617425
Au   0.000000  -0.000000  -4.617425
Au   1.953815   0.000000  -0.000000
Au  -1.953815   0.000000   0.000000
Au   0.000000   1.953815  -0.000000
Au   0.000000  -1.953815  -0.000000
Au  -0.000000   0.000000   1.953815
Au   0.000000  -0.000000  -1.953815
Au  -1.838651  -1.838651  -1.838651
Au   1.838651   1.838651  -1.838651
Au   1.838651  -1.838651   1.838651
Au  -1.838651   1.838651   1.838651
Au  -1.838651  -1.838651   1.838651
Au   1.838651   1.838651   1.838651
Au  -1.838651   1.838651  -1.838651
Au   1.838651  -1.838651  -1.838651
