20
-1544.88179500
Au  -1.906173  -0.000000  -0.000000
Au   1.906173   0.000000   0.000000
Au  -0.000000  -1.906173   0.000000
Au   0.000000   1.906173  -0.000000
Au  -0.000000   0.000000  -1.906173
Au   0.000000  -0.000000   1.906173
Au   4.469152  -0.000000  -0.000000
Au  -4.469152   0.000000   0.000000
Au  -0.000000   4.469152   0.000000
Au   0.000000  -4.469152  -0.000000
Au  -0.000000   0.000000   4.469152
Au   0.000000  -0.000000  -4.469152
Au  -1.863708  -1.863708  -1.863708
Au   1.863708   1.863708  -1.863708
Au   1.863708  -1.863708   1.863708
Au  -1.863708   1.863708   1.863708
Au  -1.863708  -1.863708   1.863708
Au   1.863708   1.863708   1.863708
Au  -1.863708   1.863708  -1.863708
Au   1.863708  -1.863708  -1.863708
