20
-1553.63629700
Au   2.475799   2.474687   2.479034
Au  -2.475799  -2.474688   2.479034
Au  -2.475800   2.474688  -2.479034
Au   2.475799  -2.474687  -2.479033
Au   2.475799   2.474688  -2.479034
Au  -2.475799  -2.474687  -2.479034
Au   2.475800  -2.474688   2.479034
Au  -2.475799   2.474687   2.479033
Au   0.000000  -1.906554  -1.839243
Au   0.000000   1.906554  -1.839243
Au  -0.000000  -1.906554   1.839243
Au  -0.000000   1.906554   1.839243
Au  -1.906528  -0.000000  -1.837064
Au  -1.906528   0.000000   1.837064
Au   1.906528  -0.000000  -1.837064
Au   1.906528   0.000000   1.837064
Au  -1.904582  -1.904564  -0.000000
Au   1.904582  -1.904564  -0.000001
Au  -1.904582   1.904564   0.000001
Au   1.904582   1.904564   0.000000
