20
-1553.99823500
Au   1.603809  -0.000000   0.210943
Au   3.379212  -0.000000   2.156355
Au  -1.972882  -0.000000  -3.622423
Au   0.816958   0.000000   2.726193
Au   0.089051  -0.000000   5.255783
Au   4.866719  -0.000000  -2.839481
Au  -0.185586   0.000000  -1.691668
Au  -2.472630  -0.000000   5.779447
Au   3.139798   0.000000  -4.791184
Au  -4.267300  -0.000000   3.885161
Au  -1.718149   0.000000   3.284054
Au   4.164984  -0.000000  -0.338261
Au   2.330136   0.000000  -2.293056
Au  -0.964955   0.000000   0.793269
Au  -4.506692   0.000000  -3.069207
Au  -2.757205  -0.000000  -1.125287
Au   2.628678  -0.000000   4.656296
Au  -3.531396  -0.000000   1.377209
Au  -1.222129  -0.000000  -6.116404
Au   0.579578   0.000000  -4.237737
