20
-1553.73547100
Au  -1.451066  -0.000000   5.521574
Au  -2.618065  -0.000000  -3.412083
Au   1.545597   0.000000  -1.688155
Au  -0.051162   0.000000  -3.784746
Au   2.541330  -0.000000  -4.121144
Au   0.565031   0.000000   0.736499
Au   3.135582  -0.000000   0.415875
Au  -5.186762  -0.000000  -3.140409
Au  -2.030530   0.000000   1.055961
Au   4.805553  -0.000000   2.470564
Au  -3.642712   0.000000  -1.028932
Au  -4.638214   0.000000   1.388254
Au   4.132553  -0.000000  -2.048009
Au  -3.047635   0.000000   3.461479
Au  -1.027407   0.000000  -1.339006
Au   1.142306   0.000000   5.281332
Au  -0.409775   0.000000   3.136608
Au   2.217039  -0.000000   2.889346
Au  -1.690472  -0.000000  -5.822828
Au   5.708809  -0.000000   0.027820
