20
-1553.59961400
Au  -3.976492  -0.000000  -1.195740
Au  -1.433828  -0.000000  -0.521524
Au  -3.305611  -0.000000   1.339509
Au  -2.613572  -0.000000   3.837272
Au   3.600000   0.000000   0.889907
Au   4.289101   0.000000   3.475318
Au  -0.161711  -0.000000  -4.917121
Au  -4.603755  -0.000000  -3.777017
Au  -2.040636  -0.000000  -3.048244
Au  -2.699010  -0.000000  -5.558548
Au   0.470287  -0.000000  -2.346375
Au   5.476341   0.000000  -0.918747
Au   1.746972   0.000000   2.704833
Au   6.098619   0.000000   1.604653
Au  -0.755002  -0.000000   2.004548
Au   1.099068   0.000000   0.197117
Au  -6.457678  -0.000000  -1.934335
Au  -0.116370  -0.000000   4.591662
Au   2.403658   0.000000   5.247085
Au   2.979621   0.000000  -1.674253
