20
-1552.04303500
Au  -0.423397  -0.000000  -2.608579
Au  -0.815008   0.000000   2.820127
Au  -2.996820   0.000000   1.242395
Au   1.529477   0.000000   1.555274
Au   1.725493  -0.000000  -1.044692
Au  -4.997565  -0.000000  -2.811854
Au  -5.348291   0.000000   2.365303
Au  -2.839054   0.000000  -1.342072
Au  -2.656497  -0.000000  -3.950297
Au   3.954387   0.000000   0.434009
Au   1.417066  -0.000000   4.171893
Au  -3.205279   0.000000   3.846823
Au  -0.650086   0.000000   0.096038
Au   1.981052  -0.000000  -3.654575
Au   4.119525   0.000000  -2.174433
Au   3.749839  -0.000000   3.038036
Au   2.452238  -2.148392   0.224708
Au   2.452238   2.148392   0.224708
Au   0.275341  -2.148262  -1.216405
Au   0.275341   2.148262  -1.216405
