20
-1552.71504800
Au   0.145998  -0.000000   4.746608
Au   2.610878  -0.000000   3.778846
Au  -3.917753   0.000000   1.204298
Au  -2.716787  -0.000000  -3.898425
Au   1.162600   0.000000  -0.309762
Au  -0.796200   0.000000  -2.071078
Au  -4.456604   0.000000   3.726073
Au  -3.364739   0.000000  -1.358474
Au  -0.195486  -0.000000  -4.597913
Au  -1.433119   0.000000   0.476441
Au   4.358505   0.000000  -3.037651
Au  -1.927802   0.000000   3.111741
Au   1.767771   0.000000  -2.869127
Au   0.524733   0.000000   2.200437
Au  -1.916821   2.138793  -0.985383
Au  -1.916821  -2.138793  -0.985383
Au   2.713624  -1.309684   1.483225
Au   2.713624   1.309684   1.483225
Au   3.322200   1.321427  -1.048849
Au   3.322200  -1.321427  -1.048849
