20
-1553.46884100
Au   2.802747  -0.000000  -0.815596
Au  -2.527624  -0.000000  -0.610503
Au   1.417130  -0.000000   1.641539
Au   0.204096  -0.000000  -0.681246
Au   0.407354   0.000000  -3.919568
Au  -1.176412  -0.000000   1.618060
Au   4.012758   0.000000   1.509926
Au  -3.795574  -0.000000   1.711452
Au  -2.395681   0.000000   3.915042
Au   0.203763  -0.000000   3.965042
Au  -3.451006   0.000000  -3.055474
Au   2.826460   0.000000   3.839618
Au  -1.296697   1.408479  -2.498838
Au  -1.296697  -1.408479  -2.498838
Au  -0.989828  -2.212387   0.034753
Au  -0.989828   2.212387   0.034753
Au   1.673600  -2.176734   0.227233
Au   1.673600   2.176734   0.227233
Au   1.348920   1.827144  -2.322294
Au   1.348920  -1.827144  -2.322294
