20
-1549.23386400
Au  -0.000047  -0.000008  -5.163221
Au  -0.000006   0.000001   4.897640
Au  -0.000040  -0.000002   1.235340
Au   0.000085  -0.000002  -1.364612
Au  -1.345173   3.244270  -2.824654
Au   1.345229  -3.244248  -2.824666
Au  -3.244250  -1.345205  -2.824649
Au   3.244266   1.345201  -2.824668
Au   0.728695   1.759019   3.085802
Au  -0.728695  -1.759033   3.085818
Au   1.758891  -0.728600   3.085774
Au  -1.758939   0.728575   3.085805
Au   1.356938  -3.276446   3.125832
Au  -1.356970   3.276470   3.125845
Au   3.276435   1.356992   3.125823
Au  -3.276465  -1.356989   3.125861
Au  -0.716076  -1.730546  -3.288243
Au   0.716099   1.730544  -3.288292
Au  -1.730537   0.716093  -3.288218
Au   1.730560  -0.716086  -3.288317
