20
-1554.38935400
Au  -1.964514   0.000000  -2.339159
Au  -1.495579  -0.000001   0.297893
Au  -3.967098  -0.000000  -0.670327
Au  -1.211580   0.000000   2.901432
Au  -3.637170  -0.000000   1.917127
Au   2.102278   0.000000  -0.292061
Au  -2.451748  -2.185328  -0.969223
Au  -2.451748   2.185327  -0.969222
Au   3.889144   1.309665  -1.712725
Au   3.889145  -1.309665  -1.712725
Au   0.506273  -1.361522   1.427535
Au   0.506273   1.361522   1.427535
Au   1.371183   3.769274   1.949918
Au   1.371183  -3.769273   1.949918
Au   0.091484   1.352331  -1.400908
Au   0.091484  -1.352331  -1.400908
Au   2.115082  -2.651454  -0.290005
Au   2.115082   2.651454  -0.290006
Au  -0.434587   3.471036   0.087956
Au  -0.434588  -3.471036   0.087956
