20
-1553.89335100
Au   0.097750  -0.000447  -0.942868
Au   2.336585   0.000210   0.534776
Au  -4.075630   1.299249  -1.985683
Au  -4.070038  -1.290652  -1.981911
Au   2.159266  -1.300604   2.833736
Au   2.152120   1.298325   2.834582
Au   0.759810   3.476160   2.653192
Au   0.768349  -3.479564   2.652325
Au  -2.094174  -1.310554  -0.275547
Au  -2.096238   1.310842  -0.283610
Au   2.138136  -2.663752   0.540603
Au   2.134399   2.663210   0.543240
Au   2.186762  -1.311135  -1.811381
Au   2.186247   1.311838  -1.810611
Au  -0.047760   1.324552   1.383363
Au  -0.042251  -1.326461   1.386119
Au   0.033513  -2.715965  -1.008773
Au   0.033093   2.715784  -1.010228
Au  -2.281889  -3.181278  -2.120407
Au  -2.278050   3.180243  -2.130917
