20
-1549.36449100
Au   0.000000   0.000006  -0.001335
Au  -0.000000  -0.000004   2.574323
Au  -0.000000  -0.000001  -2.577490
Au  -0.000000  -0.000001   5.174017
Au  -0.000000  -0.000002  -5.177366
Au  -3.913586   2.259508  -0.011270
Au  -0.000000  -4.519027  -0.011268
Au   3.913586   2.259508  -0.011270
Au  -2.664623  -0.016972   0.003626
Au   1.347019  -2.299159   0.003629
Au   1.317617   2.316144   0.003629
Au  -1.317617   2.316144   0.003629
Au   2.664623  -0.016972   0.003626
Au  -1.347019  -2.299159   0.003629
Au   2.232037  -1.288671  -2.241793
Au   0.000000   2.577334  -2.241795
Au  -2.232037  -1.288671  -2.241793
Au   2.232916  -1.289174   2.248423
Au  -0.000000   2.578344   2.248429
Au  -2.232916  -1.289174   2.248423
