20
-1538.49732400
Au   0.350875  -0.775843   0.000397
Au  -0.257913  -0.023262   4.532830
Au  -0.257688  -0.022432  -4.531885
Au   0.143470   0.631393  -2.112881
Au   0.143341   0.631067   2.113937
Au  -1.271101   1.269296   0.000540
Au  -0.143160  -3.270227   0.000079
Au   1.290071   1.578211   0.000658
Au   7.001630  -4.042373  -3.874355
Au  -0.000085   7.416916  -2.962847
Au  -6.250512  -3.656004  -2.005422
Au   7.001004  -4.041987   3.874201
Au   0.000673   7.218199   1.996320
Au  -6.402618  -3.702867   2.956224
Au   7.003986  -4.043758   1.290441
Au  -0.000041   9.713382   1.437028
Au  -6.905105  -3.987358   0.472387
Au   7.002145  -4.042620  -1.290287
Au   0.000246   7.974751  -0.474538
Au  -8.449219  -4.824483  -1.422828
