20
-1551.56828200
Au  -0.051219   0.106801  -2.167501
Au  -0.051219   0.106801   2.167501
Au  -1.355792   0.857537   0.000000
Au  -0.083104  -1.391495   0.000000
Au   1.220680   0.881389   0.000000
Au  -5.290895   3.138882  -0.000000
Au  -0.018758  -5.945825  -0.000000
Au   5.136488   3.174443  -0.000000
Au  -1.328573  -3.697766  -0.000000
Au   3.836134   0.901024  -0.000000
Au  -2.699658   3.147175   0.000000
Au   2.538939   3.145481   0.000000
Au   1.260339  -3.663463   0.000000
Au  -3.993505   0.864259  -0.000000
Au  -3.917179  -3.771708  -0.000000
Au   2.556117  -1.355112  -0.000000
Au  -0.099212   3.139126   0.000000
Au   1.236911   5.372907   0.000000
Au   3.852788  -3.581177  -0.000000
Au  -2.749282  -1.429279  -0.000000
