20
-1553.13907400
Au   0.613180   0.855362  -1.155402
Au  -0.242771   0.544088   2.456085
Au   4.451120  -0.453287  -2.337208
Au   0.568676   5.465377  -2.590736
Au  -5.304321  -2.914836  -1.523645
Au   2.212128  -1.393386  -1.392670
Au   0.774744   3.488100  -0.947151
Au  -2.928879  -2.009568  -0.984365
Au  -1.277801  -3.840313   0.075990
Au   1.637793  -0.653429   1.045013
Au  -1.108269   2.114563   0.363152
Au   1.475896   2.030466   1.086961
Au   1.285080  -3.225881   0.278632
Au  -2.213555  -0.325429   0.940127
Au  -1.958198   0.392280  -1.578210
Au  -0.368707  -1.522151  -0.743840
Au   3.160581   0.993052  -0.617775
Au  -2.540220   1.788675   2.500513
Au  -0.484992  -2.097714   1.903808
Au   2.248517   0.764031   3.220720
