20
-1553.33042000
Au  -0.000001   0.675414   3.671064
Au  -0.000001   0.675414  -3.671064
Au  -1.456820   2.711993  -0.000000
Au  -1.289216  -3.969508  -0.000000
Au   2.354846  -1.624136   0.000000
Au  -2.354845  -1.624133   0.000000
Au   1.456820   2.711992  -0.000000
Au   1.289217  -3.969508  -0.000000
Au  -1.364603   0.371893   1.369069
Au  -0.000001  -1.982883   1.296768
Au   1.364605   0.371895   1.369072
Au  -1.364604   0.371893  -1.369069
Au  -0.000001  -1.982883  -1.296767
Au   1.364605   0.371895  -1.369072
Au  -1.314325   2.681067   2.612448
Au   0.000002  -1.916803   3.902082
Au   1.314323   2.681066   2.612448
Au  -1.314325   2.681067  -2.612448
Au   0.000002  -1.916803  -3.902082
Au   1.314323   2.681066  -2.612448
