20
-1549.70564200
Au  -0.000232   0.000193   1.389258
Au  -0.000232   0.000193  -1.389258
Au   2.266946  -1.308778  -1.378322
Au  -0.000264   2.618112  -1.378393
Au  -2.267438  -1.308755  -1.378371
Au   2.266946  -1.308778   1.378322
Au  -0.000264   2.618112   1.378393
Au  -2.267438  -1.308755   1.378371
Au  -2.266734   1.308752   1.300852
Au  -0.000277  -2.616867   1.300869
Au   2.266176   1.308745   1.300870
Au  -2.266734   1.308752  -1.300852
Au  -0.000277  -2.616867  -1.300869
Au   2.266176   1.308745  -1.300870
Au   4.504911  -2.601203   1.305608
Au   0.001486   5.202523   1.305654
Au  -4.504574  -2.602721   1.305640
Au   4.504911  -2.601203  -1.305608
Au   0.001486   5.202523  -1.305654
Au  -4.504574  -2.602721  -1.305640
