20
-1552.40067700
Au  -0.000003  -0.003358   1.334210
Au  -0.000002  -0.003358  -1.334210
Au   1.317830  -0.766498  -3.599033
Au   0.000011   1.465411  -3.537788
Au  -1.317816  -0.766492  -3.599023
Au   1.317831  -0.766498   3.599034
Au   0.000011   1.465411   3.537788
Au  -1.317815  -0.766493   3.599022
Au  -2.245161   1.311676   1.338501
Au  -0.000004  -2.603517   1.324161
Au   2.245153   1.311679   1.338501
Au  -2.245161   1.311676  -1.338500
Au  -0.000004  -2.603517  -1.324161
Au   2.245153   1.311679  -1.338501
Au   2.363546  -1.343804   1.297479
Au  -0.000006   2.738708   1.294500
Au  -2.363553  -1.343804   1.297478
Au   2.363546  -1.343804  -1.297479
Au  -0.000006   2.738708  -1.294500
Au  -2.363552  -1.343804  -1.297478
