20
-1550.79688200
Au   0.000012  -0.351294  -1.345646
Au   0.000010  -0.351292   1.345660
Au  -2.392623   0.866298   1.360666
Au   0.000029  -3.074460   1.323139
Au   2.392619   0.866311   1.360643
Au  -2.392628   0.866301  -1.360670
Au   0.000022  -3.074466  -1.323145
Au   2.392623   0.866313  -1.360650
Au  -1.293876   3.230057   1.303936
Au  -2.221177  -1.749888   1.369874
Au   4.548772  -0.633580   1.311508
Au  -1.293876   3.230057  -1.303936
Au  -2.221183  -1.749884  -1.369872
Au   4.548767  -0.633586  -1.311504
Au  -4.548738  -0.633585   1.311505
Au   1.293871   3.230050   1.303936
Au   2.221125  -1.749911   1.369876
Au  -4.548742  -0.633579  -1.311510
Au   1.293872   3.230051  -1.303936
Au   2.221121  -1.749914  -1.369874
