20
-1555.17218200
Au   0.094936  -0.086601  -5.210015
Au  -0.094935  -0.086598   5.210011
Au  -1.036142   0.629328  -2.951840
Au  -0.377084  -1.912210  -3.418758
Au   1.526512  -0.139805  -3.029126
Au  -1.526518  -0.139799   3.029112
Au   0.377075  -1.912210   3.418766
Au   1.036145   0.629325   2.951846
Au   0.808823  -1.898994  -1.065182
Au   0.923188   2.037493  -1.668318
Au  -3.400536   0.558994  -1.794924
Au   1.861046  -1.503937   1.304411
Au   1.572706   2.165517   0.852750
Au  -2.540081   0.150212   0.653147
Au   2.540086   0.150210  -0.653132
Au  -1.861044  -1.503937  -1.304416
Au  -1.572699   2.165523  -0.852751
Au   3.400537   0.558984   1.794920
Au  -0.808831  -1.898987   1.065179
Au  -0.923185   2.037493   1.668321
