20
-1555.66793000
Au   0.000002   0.000000   5.342900
Au  -0.000002  -0.000000  -5.342900
Au  -2.552161  -0.000000   1.857612
Au   1.276081  -2.210236   1.857611
Au   1.276081   2.210236   1.857611
Au  -1.276081   2.210236  -1.857611
Au   2.552161   0.000000  -1.857612
Au  -1.276081  -2.210236  -1.857611
Au  -1.559507   0.000000  -3.251769
Au   0.779752  -1.350571  -3.251769
Au   0.779752   1.350571  -3.251769
Au  -0.779752   1.350571   3.251769
Au   1.559507   0.000000   3.251769
Au  -0.779752  -1.350571   3.251769
Au  -2.326992   0.000000  -0.734929
Au   1.163495  -2.015232  -0.734929
Au   1.163495   2.015232  -0.734929
Au  -1.163495   2.015232   0.734929
Au   2.326992  -0.000000   0.734929
Au  -1.163495  -2.015232   0.734929
