20
-1553.96450700
Au  -0.474773   0.000015  -3.136756
Au   0.474773  -0.000015   3.136756
Au   2.849473   0.000000   2.104162
Au  -1.599544   2.583560   1.522101
Au  -1.599482  -2.583641   1.522076
Au   1.599544  -2.583560  -1.522101
Au  -2.849473  -0.000000  -2.104162
Au   1.599482   2.583641  -1.522076
Au  -1.338146   0.000039   1.244284
Au   0.894540  -1.544647   0.982631
Au   0.894538   1.544646   0.982636
Au  -0.894540   1.544647  -0.982631
Au   1.338146  -0.000039  -1.244284
Au  -0.894538  -1.544646  -0.982636
Au  -3.377476   1.320401   0.083655
Au  -0.000053  -3.914822   0.000053
Au   3.377482   1.320395  -0.083643
Au   3.377476  -1.320401  -0.083655
Au   0.000053   3.914822  -0.000053
Au  -3.377482  -1.320395   0.083643
