20
-1555.91512200
Au  -0.005048  -0.000002   2.041926
Au   0.005048  -0.000002  -2.041926
Au   2.607563  -0.000017  -1.369252
Au  -1.299394   2.255696  -1.378192
Au  -1.299391  -2.255700  -1.378189
Au   1.299392  -2.255700   1.378189
Au  -2.607563  -0.000018   1.369252
Au   1.299394   2.255697   1.378192
Au  -2.630487  -0.000001  -1.411964
Au   1.319917  -2.280790  -1.402844
Au   1.319911   2.280798  -1.402845
Au  -1.319910   2.280799   1.402845
Au   2.630487  -0.000002   1.411964
Au  -1.319918  -2.280789   1.402844
Au   3.535306  -2.041169   0.008024
Au   0.000000   4.082117   0.000000
Au  -3.535306  -2.041169  -0.008024
Au  -3.535312   2.041180  -0.008031
Au   0.000000  -4.082108  -0.000000
Au   3.535312   2.041180   0.008031
