20
-1552.81953400
Au   0.466859   0.101166  -3.451884
Au  -0.466876  -0.101154   3.451885
Au   2.210682  -0.048586  -1.497610
Au   0.030242   1.423640  -1.263724
Au  -0.095939  -1.333402  -1.357407
Au  -0.030290  -1.423627   1.263736
Au  -2.210674   0.048594   1.497612
Au   0.095984   1.333383   1.357378
Au  -4.245516   1.060207   0.221837
Au   0.251972  -6.168624   0.102452
Au   4.498181   1.367114  -1.100698
Au   4.245554  -1.060218  -0.221872
Au  -0.252013   6.168663  -0.102462
Au  -4.498124  -1.367139   1.100668
Au  -2.026820   2.383955   0.086891
Au  -0.261815  -3.655682  -0.133136
Au   2.307858   2.027764   0.129868
Au   2.026793  -2.383979  -0.086872
Au   0.261767   3.655718   0.133138
Au  -2.307825  -2.027794  -0.129800
