20
-1553.34989300
Au   0.906059  -0.945056  -0.000000
Au  -0.906060   0.945061   0.000000
Au   0.009461   3.425876  -0.000001
Au  -0.009462  -3.425872   0.000001
Au   3.541453  -0.430963  -0.000000
Au  -3.541454   0.430967   0.000000
Au  -1.784366   5.305948   0.000000
Au   1.784365  -5.305945   0.000000
Au  -1.785332  -1.523438  -0.000000
Au   1.785331   1.523442  -0.000000
Au   2.650411  -2.878875   0.000001
Au  -2.650413   2.878879  -0.000000
Au  -2.195887   0.508447  -2.248905
Au   2.195888  -0.508452  -2.248906
Au  -0.338082  -1.337685  -2.278399
Au   0.338084   1.337680  -2.278400
Au   2.195889  -0.508454   2.248906
Au  -2.195887   0.508447   2.248905
Au  -0.338082  -1.337686   2.278399
Au   0.338084   1.337679   2.278400
