20
-1554.91777300
Au   0.000000  -0.000074   3.380630
Au   0.000000   0.000024  -2.460185
Au   2.251602  -1.299936  -1.267525
Au   0.000000   2.600081  -1.267407
Au  -2.251603  -1.299937  -1.267525
Au  -2.198222   1.269189  -1.850120
Au  -0.000000  -2.538357  -1.850178
Au   2.198222   1.269189  -1.850120
Au   3.573472  -2.063133   0.895051
Au  -0.000000   4.126305   0.895321
Au  -3.573472  -2.063133   0.895051
Au   1.323485  -0.764101   1.251076
Au  -0.000000   1.528052   1.251220
Au  -1.323485  -0.764101   1.251076
Au  -2.161933   2.759890   0.332325
Au  -1.309163  -3.252252   0.332208
Au   3.471093   0.492329   0.332285
Au  -3.471093   0.492329   0.332285
Au   2.161933   2.759890   0.332325
Au   1.309163  -3.252252   0.332208
