20
-1554.17317200
Au  -0.000000  -0.000000  -0.384591
Au  -0.000000   0.000000   4.087626
Au  -1.323787   0.764289   1.961715
Au  -0.000000  -1.528578   1.961715
Au   1.323787   0.764289   1.961715
Au  -3.050910   1.761443   0.330742
Au  -0.000000  -3.522887   0.330742
Au   3.050910   1.761443   0.330742
Au   3.880726  -2.240538  -1.154172
Au   0.000000   4.481077  -1.154172
Au  -3.880726  -2.240538  -1.154172
Au   2.310243  -1.333819   0.730121
Au   0.000000   2.667639   0.730121
Au  -2.310243  -1.333819   0.730121
Au  -2.599187   0.003072  -1.551375
Au   1.296933  -2.252498  -1.551375
Au   1.302254   2.249425  -1.551375
Au  -1.302254   2.249425  -1.551375
Au   2.599187   0.003072  -1.551375
Au  -1.296933  -2.252498  -1.551375
