20
-1555.94237600
Au  -0.000000  -0.000000   2.039514
Au   0.000000   0.000000  -2.039574
Au  -3.540187   2.043928  -0.000089
Au  -0.000000  -4.087856  -0.000089
Au   3.540187   2.043928  -0.000089
Au   3.540025  -2.043834   0.000114
Au  -0.000000   4.087669   0.000114
Au  -3.540025  -2.043834   0.000114
Au   2.618313   0.000055   1.382715
Au  -1.309205   2.267498   1.382715
Au  -1.309109  -2.267554   1.382715
Au   1.309109  -2.267554   1.382715
Au  -2.618313   0.000055   1.382715
Au   1.309205   2.267498   1.382715
Au  -2.618147   0.000022  -1.382718
Au   1.309055  -2.267393  -1.382718
Au   1.309092   2.267371  -1.382718
Au  -1.309092   2.267371  -1.382718
Au   2.618147   0.000022  -1.382718
Au  -1.309055  -2.267393  -1.382718
