20
-1555.67459200
Au  -0.000000   0.000000  -1.334251
Au  -0.000000  -0.000000   1.334250
Au  -2.175759   1.295096  -0.000289
Au   0.000006  -2.767975  -0.000002
Au   2.175662   1.295040   0.000279
Au   2.175759  -1.295096  -0.000289
Au  -0.000006   2.767975  -0.000002
Au  -2.175662  -1.295040   0.000279
Au   2.579042   0.000667  -2.315460
Au  -1.289292   2.256209  -2.292464
Au  -1.289683  -2.257852  -2.291745
Au  -2.579042  -0.000667  -2.315460
Au   1.289292  -2.256209  -2.292464
Au   1.289683   2.257852  -2.291745
Au  -1.289634   2.257774   2.291735
Au   2.579055  -0.000650   2.315461
Au  -1.289349  -2.256286   2.292486
Au   1.289634  -2.257774   2.291735
Au  -2.579055   0.000650   2.315461
Au   1.289349   2.256286   2.292486
