20
-1555.94236700
Au  -0.000000  -0.000000  -4.087748
Au  -0.000000  -0.000000   4.087688
Au  -2.040003  -0.000044   0.000058
Au   1.382798  -2.618081   0.000346
Au   1.382834   2.618140  -0.000279
Au   2.040003   0.000044   0.000058
Au  -1.382798   2.618081   0.000346
Au  -1.382834  -2.618140  -0.000279
Au   1.383203   1.308761   2.267144
Au  -1.382388   1.309470   2.267817
Au  -0.000926  -3.539834   2.043829
Au  -1.383203  -1.308761   2.267144
Au   1.382388  -1.309470   2.267817
Au   0.000926   3.539834   2.043829
Au  -0.000934   3.539947  -2.043825
Au   1.383176  -1.308732  -2.267214
Au  -1.382505  -1.309497  -2.267848
Au   0.000934  -3.539947  -2.043825
Au  -1.383176   1.308732  -2.267214
Au   1.382505   1.309497  -2.267848
