20
-1545.76812100
Au  -0.000000  -0.000000  -1.874363
Au  -0.000000   0.000000   1.874363
Au  -0.000000  -0.000000  -4.440934
Au   0.000000   0.000000   4.440934
Au   1.837718  -0.000000   0.000000
Au  -1.837718   0.000000   0.000000
Au   0.000000   1.837718   0.000000
Au  -0.000000  -1.837718   0.000000
Au   4.383206   0.000000  -0.000000
Au  -4.383206  -0.000000  -0.000000
Au  -0.000000   4.383206  -0.000000
Au   0.000000  -4.383206  -0.000000
Au   2.505897   2.505897   0.000000
Au  -2.505897  -2.505897  -0.000000
Au  -2.505897   2.505897  -0.000000
Au   2.505897  -2.505897  -0.000000
Au   4.318993   4.318993   0.000000
Au  -4.318993  -4.318993   0.000000
Au  -4.318993   4.318993   0.000000
Au   4.318993  -4.318993   0.000000
