20
-1550.25018000
Au  -0.000000  -0.000001  -1.307180
Au  -0.000000  -0.000001   1.307180
Au   0.000000   0.000000   3.885064
Au  -0.000000  -0.000000  -3.885064
Au   3.722108  -0.000040   0.000009
Au  -3.722105   0.000033   0.000009
Au  -0.000031   3.722104  -0.000008
Au   0.000057  -3.722110  -0.000011
Au   1.658882   1.658889   0.000000
Au  -1.658886  -1.658879  -0.000000
Au  -1.658885   1.658891  -0.000000
Au   1.658884  -1.658886   0.000000
Au   2.488130   4.203130   0.415163
Au  -2.488147  -4.203128   0.415163
Au  -4.203099   2.488126   0.415151
Au   4.203107  -2.488114   0.415154
Au  -2.488125   4.203099  -0.415150
Au   2.488106  -4.203106  -0.415153
Au   4.203131   2.488134  -0.415164
Au  -4.203126  -2.488140  -0.415162
