20
-1551.88554800
Au  -0.000000  -0.000000  -1.377921
Au   0.000000  -0.000000   1.222740
Au  -0.000000   0.000000   3.820329
Au  -0.000000   0.000000  -3.959659
Au   2.699331   0.000162   1.032977
Au  -2.699331  -0.000162   1.032977
Au  -0.000413   4.077159  -0.944863
Au   0.000413  -4.077160  -0.944864
Au  -1.297985  -1.974145   0.017176
Au   1.297985   1.974146   0.017176
Au   1.298835  -1.972502   0.013697
Au  -1.298835   1.972502   0.013697
Au   3.852621   2.289837   0.608871
Au  -3.852621  -2.289837   0.608871
Au  -2.562476   4.190562  -0.595095
Au   2.562476  -4.190562  -0.595095
Au  -3.857264   2.283827   0.591051
Au   3.857264  -2.283827   0.591051
Au   2.558882   4.197652  -0.576559
Au  -2.558881  -4.197652  -0.576559
