20
-1552.20721800
Au   0.000000   0.000000  -1.449380
Au  -0.000000   0.000000   1.133570
Au  -0.000000   0.000000   3.732908
Au  -0.000000  -0.000000  -4.084281
Au  -3.389306  -2.830719   1.320610
Au   3.389306   2.830719   1.320610
Au   3.703400  -3.130868   0.021824
Au  -3.703400   3.130868   0.021824
Au  -1.846032  -1.365930  -0.174263
Au   1.846032   1.365929  -0.174263
Au   1.780448  -1.418054  -0.154428
Au  -1.780448   1.418054  -0.154428
Au   1.371426  -1.839844   2.444009
Au  -1.371426   1.839844   2.444009
Au   1.247400   1.935269   2.453502
Au  -1.247400  -1.935269   2.453502
Au  -1.874765  -1.266009  -2.789236
Au   1.874765   1.266009  -2.789236
Au  -1.790655   1.404412  -2.788426
Au   1.790655  -1.404412  -2.788426
