20
-1547.19753400
Au   0.000000  -0.000000  -1.964971
Au  -0.000000   0.000000   1.964971
Au   0.000000  -0.000000   4.560512
Au  -0.000000   0.000000  -4.560512
Au  -1.286834  -1.286834   0.000000
Au   1.286834   1.286834  -0.000000
Au   1.286834  -1.286834   0.000000
Au  -1.286834   1.286834  -0.000000
Au   3.107031   3.107031   0.000000
Au  -3.107031  -3.107031  -0.000000
Au  -3.107031   3.107031   0.000000
Au   3.107031  -3.107031  -0.000000
Au   2.183513   2.184560   2.260363
Au  -2.183513  -2.184560   2.260363
Au  -2.184560   2.183513   2.260363
Au   2.184560  -2.183513   2.260363
Au  -2.183513   2.184560  -2.260363
Au   2.183513  -2.184560  -2.260363
Au   2.184560   2.183513  -2.260363
Au  -2.184560  -2.183513  -2.260363
