20
-1546.78100300
Au   0.000000  -0.000000  -1.995079
Au   0.000000   0.000000   1.995079
Au   0.000000  -0.000000   4.589639
Au  -0.000000  -0.000000  -4.589639
Au  -3.083134  -3.083134   0.000000
Au   3.083134   3.083134   0.000000
Au   3.083134  -3.083134   0.000000
Au  -3.083134   3.083134   0.000000
Au   1.281066   1.281066   0.000000
Au  -1.281066  -1.281066   0.000000
Au  -1.281066   1.281066   0.000000
Au   1.281066  -1.281066   0.000000
Au  -1.905751   1.905031   2.421467
Au   1.905751  -1.905031   2.421467
Au  -1.905031  -1.905751   2.421467
Au   1.905031   1.905751   2.421467
Au   1.905751   1.905031  -2.421467
Au  -1.905751  -1.905031  -2.421467
Au   1.905031  -1.905751  -2.421467
Au  -1.905031   1.905751  -2.421467
