20
-1552.88652700
Au  -3.422557  -0.042769   0.000000
Au   3.422557   0.042769   0.000000
Au   0.537856  -3.491988   0.000000
Au  -0.537856   3.491988   0.000000
Au   1.510171   1.846172   0.000000
Au  -1.510171  -1.846172   0.000000
Au  -0.962901   0.882239  -0.000000
Au   0.962901  -0.882239   0.000000
Au  -4.030069  -2.581393   0.000000
Au   4.030069   2.581393   0.000000
Au   2.975575  -2.537388   0.000000
Au  -2.975575   2.537388   0.000000
Au   1.746961   0.201553   2.234568
Au  -1.746961  -0.201553   2.234568
Au  -0.149791   2.024021   2.199300
Au   0.149791  -2.024021   2.199300
Au  -1.746961  -0.201553  -2.234568
Au   1.746961   0.201553  -2.234568
Au  -0.149791   2.024021  -2.199300
Au   0.149791  -2.024021  -2.199300
