20
-1553.63965400
Au  -1.825984  -1.825986   0.000007
Au   1.825984   1.825985   0.000007
Au   1.825983  -1.825984  -0.000005
Au  -1.825982   1.825984  -0.000005
Au   1.861049   0.000009  -1.981714
Au  -1.861049  -0.000007  -1.981714
Au  -0.000058   1.861049  -1.981714
Au   0.000058  -1.861050  -1.981714
Au  -1.861050   0.000033   1.981712
Au   1.861049  -0.000032   1.981712
Au   0.000033   1.861050   1.981713
Au  -0.000033  -1.861051   1.981713
Au   2.489127   2.488998   2.451028
Au  -2.489127  -2.488998   2.451028
Au  -2.488994   2.489130   2.451029
Au   2.488995  -2.489131   2.451029
Au  -2.489115   2.488986  -2.451024
Au   2.489116  -2.488987  -2.451024
Au   2.489005   2.489141  -2.451032
Au  -2.489006  -2.489141  -2.451032
