20
-1555.48203100
Au  -3.676407  -2.890568   1.315634
Au   3.676407   2.890568   1.315634
Au   3.685421  -2.879466  -1.315375
Au  -3.685421   2.879466  -1.315375
Au   3.056876   1.265842  -0.626876
Au  -3.056876  -1.265842  -0.626876
Au  -1.233076   2.937024  -0.438347
Au   1.233076  -2.937024  -0.438347
Au  -3.060707   1.256332   0.626712
Au   3.060707  -1.256332   0.626712
Au   1.223677   2.940707   0.438711
Au  -1.223677  -2.940707   0.438711
Au   0.531861   1.243714  -1.484654
Au  -0.531861  -1.243714  -1.484654
Au  -2.104022   0.859199  -1.836723
Au   2.104022  -0.859199  -1.836723
Au  -0.535672   1.241766   1.484137
Au   0.535672  -1.241766   1.484137
Au   2.101540   0.865448   1.836781
Au  -2.101540  -0.865448   1.836781
