20
-1545.17955700
Au   0.000000  -0.000000   4.578763
Au   0.000000  -0.000000  -4.578763
Au   0.000000  -0.000000  -1.970477
Au   0.000000  -0.000000   1.970477
Au   0.000000   1.906972  -0.000000
Au   0.000000  -1.906972  -0.000000
Au   0.000000   4.546368   0.000000
Au   0.000000  -4.546368   0.000000
Au  -4.449667  -0.000000   0.000000
Au   4.449667  -0.000000   0.000000
Au   1.885157  -0.000000   0.000000
Au  -1.885157  -0.000000  -0.000000
Au  -1.874142  -1.851190   1.818559
Au   1.874142   1.851190   1.818559
Au   1.874142  -1.851190  -1.818559
Au  -1.874142   1.851190  -1.818559
Au   1.935609   1.945343  -1.703050
Au  -1.935609  -1.945343  -1.703050
Au  -1.935609   1.945343   1.703050
Au   1.935609  -1.945343   1.703050
