20
-1549.99894600
Au  -0.000000  -0.000000   1.318435
Au  -0.000000   0.000000  -1.318435
Au  -0.000000  -0.000000  -3.905689
Au  -0.000000   0.000000   3.905689
Au   0.000000  -2.245831  -0.000000
Au   0.000000   2.245831   0.000000
Au   0.000000   4.863758   0.000000
Au   0.000000  -4.863758  -0.000000
Au  -2.245181  -0.000000   0.000000
Au   2.245181  -0.000000   0.000000
Au  -4.813852   0.000000  -0.000000
Au   4.813852  -0.000000  -0.000000
Au  -1.540971  -3.597205   1.656452
Au   1.540971   3.597205   1.656452
Au   1.540971  -3.597205  -1.656452
Au  -1.540971   3.597205  -1.656452
Au  -1.951428  -1.182783   2.534688
Au   1.951428   1.182783   2.534688
Au   1.951428  -1.182783  -2.534688
Au  -1.951428   1.182783  -2.534688
