20
-1549.54879000
Au  -0.000046   0.000020   1.898291
Au   0.000033   0.000007  -1.898294
Au  -0.000051  -0.000023  -4.473081
Au   0.000089  -0.000037   4.473077
Au  -0.000000  -4.434359  -0.000000
Au   0.000001   4.434359  -0.000001
Au  -0.000006  -1.813933   0.000003
Au   0.000008   1.813932  -0.000006
Au   4.473286   0.000043  -0.000105
Au  -4.473284   0.000020   0.000041
Au   1.898614  -0.000023   0.000051
Au  -1.898612  -0.000004  -0.000029
Au   2.422070  -0.841606   2.422781
Au  -2.422201   0.841608   2.422662
Au  -2.422104  -0.841603  -2.422740
Au   2.422194   0.841601  -2.422637
Au   1.585204  -3.154989   1.601126
Au  -1.585185   3.154984   1.601138
Au  -1.585201  -3.154991  -1.601130
Au   1.585191   3.154995  -1.601146
