20
-1550.63192400
Au  -0.000000   0.000000   1.299506
Au  -0.000000  -0.000000  -1.299506
Au   0.000000  -0.000000   3.903509
Au   0.000000   0.000000  -3.903509
Au  -0.000000  -4.883686  -0.000000
Au  -0.000000   4.883686   0.000000
Au   0.000000  -2.312524   0.000000
Au   0.000000   2.312524  -0.000000
Au  -1.466766  -1.741139  -2.614902
Au   1.466766   1.741139  -2.614902
Au   1.466766  -1.741139   2.614902
Au  -1.466766   1.741139   2.614902
Au  -2.579685  -2.214701  -0.298566
Au   2.579685   2.214701  -0.298566
Au   2.579685  -2.214701   0.298566
Au  -2.579685   2.214701   0.298566
Au  -2.756630  -0.185610   1.322516
Au   2.756630   0.185610   1.322516
Au   2.756630  -0.185610  -1.322516
Au  -2.756630   0.185610  -1.322516
