20
-1554.81039600
Au  -3.450534  -0.624015  -2.122350
Au   3.450534   0.624015  -2.122350
Au   0.134431  -3.308440  -0.980964
Au  -0.134431   3.308440  -0.980964
Au   2.753685   0.094447   0.338209
Au  -2.753685  -0.094447   0.338209
Au   0.427469   1.319643   0.649950
Au  -0.427469  -1.319645   0.649952
Au   1.316907  -0.494818   2.474587
Au  -1.316907   0.494818   2.474587
Au   0.696171   1.900391   3.356570
Au  -0.696171  -1.900391   3.356570
Au  -0.810146  -1.028185  -2.086766
Au   0.810147   1.028186  -2.086767
Au   1.791153  -1.377966  -1.671923
Au  -1.791154   1.377967  -1.671924
Au  -2.386804  -2.570552  -0.693670
Au   2.386804   2.570552  -0.693670
Au   1.963944  -2.430215   0.736357
Au  -1.963944   2.430215   0.736357
