20
-1557.20946000
Au   0.950694  -0.995015   0.972940
Au  -0.950694   0.995015   0.972940
Au  -0.995015  -0.950694  -0.972940
Au   0.995015   0.950694  -0.972940
Au  -0.954956  -0.912808   2.837556
Au   0.954956   0.912808   2.837556
Au  -0.912808   0.954956  -2.837556
Au   0.912808  -0.954956  -2.837556
Au   0.998265   2.815360   0.933950
Au  -0.998265  -2.815360   0.933950
Au   2.815360  -0.998265  -0.933950
Au  -2.815360   0.998265  -0.933950
Au  -0.869150   2.857883  -0.934601
Au   0.869150  -2.857883  -0.934601
Au   2.857883   0.869150   0.934601
Au  -2.857883  -0.869150   0.934601
Au   2.712052  -2.837561  -2.775471
Au  -2.712052   2.837561  -2.775471
Au  -2.837561  -2.712052   2.775471
Au   2.837561   2.712052   2.775471
