20
-1544.62576900
Au  -3.549586  -0.000000   0.000000
Au   3.549586   0.000000  -0.000000
Au  -0.000000  -3.549586  -0.000000
Au   0.000000   3.549586  -0.000000
Au  -1.304267  -1.304267   0.000000
Au   1.304267   1.304267  -0.000000
Au   1.304267  -1.304267   0.000000
Au  -1.304267   1.304267   0.000000
Au  -3.134237  -3.134237  -0.000000
Au   3.134237   3.134237  -0.000000
Au   3.134237  -3.134237   0.000000
Au  -3.134237   3.134237   0.000000
Au   2.241833   2.241833   2.251319
Au  -2.241833  -2.241833   2.251319
Au  -2.241833   2.241833   2.251319
Au   2.241833  -2.241833   2.251319
Au  -2.241833   2.241833  -2.251319
Au   2.241833  -2.241833  -2.251319
Au   2.241833   2.241833  -2.251319
Au  -2.241833  -2.241833  -2.251319
