20
-1550.42233600
Au  -3.547689   0.000000  -0.000000
Au   3.547689   0.000000   0.000000
Au   0.000000  -3.547689  -0.000000
Au  -0.000000   3.547689   0.000000
Au  -1.276984  -1.276984  -0.000000
Au   1.276984   1.276984  -0.000000
Au   1.276984  -1.276984   0.000000
Au  -1.276984   1.276984   0.000000
Au  -3.099931  -3.099931  -0.000000
Au   3.099931   3.099931   0.000000
Au   3.099931  -3.099931   0.000000
Au  -3.099931   3.099931   0.000000
Au   5.374174  -1.853271  -0.000000
Au  -5.374174   1.853271  -0.000000
Au   1.853271   5.374174  -0.000000
Au  -1.853271  -5.374174   0.000000
Au  -5.374174  -1.853271   0.000000
Au   5.374174   1.853271  -0.000000
Au  -1.853271   5.374174  -0.000000
Au   1.853271  -5.374174  -0.000000
