20
-1549.50641200
Au   3.185623   0.023809   0.000000
Au  -3.185623  -0.023809  -0.000000
Au   0.024015   3.192316   0.000000
Au  -0.024015  -3.192316  -0.000000
Au   4.360084   4.355577  -0.000000
Au  -4.360084  -4.355577  -0.000000
Au  -4.275038   4.269961  -0.000000
Au   4.275038  -4.269961  -0.000000
Au   2.501451   2.502358  -0.000000
Au  -2.501451  -2.502358   0.000000
Au  -2.446145   2.447210   0.000000
Au   2.446145  -2.447210  -0.000000
Au  -5.040036   1.797979  -0.000000
Au   5.040036  -1.797979   0.000000
Au  -1.866043  -5.037729  -0.000000
Au   1.866043   5.037729   0.000000
Au   5.036008   1.859585  -0.000000
Au  -5.036008  -1.859585   0.000000
Au   1.804767  -5.040787   0.000000
Au  -1.804767   5.040787   0.000000
