20
-1555.41778400
Au  -2.282597   0.127222  -1.329747
Au   2.282597  -0.127222  -1.329747
Au  -0.041209  -1.316539  -1.745256
Au   0.041209   1.316539  -1.745256
Au   3.494094   0.825041   0.822022
Au  -3.494094  -0.825041   0.822022
Au  -0.024419   3.356643   0.247806
Au   0.024419  -3.356643   0.247806
Au   0.884990   0.963027   0.863252
Au  -0.884990  -0.963027   0.863252
Au  -1.880920   1.481917   0.947844
Au   1.880920  -1.481917   0.947844
Au  -2.234361  -2.451606  -0.911479
Au   2.234361   2.451606  -0.911479
Au   2.093033  -2.772059  -1.360661
Au  -2.093033   2.772059  -1.360661
Au  -2.268851  -3.075688   1.598013
Au   2.268851   3.075688   1.598013
Au   2.479658  -4.044011   0.868207
Au  -2.479658   4.044011   0.868207
