20
-1555.23919700
Au   2.820498  -0.000001  -0.000000
Au  -2.820498   0.000001  -0.000000
Au  -0.000001   2.820499  -0.000000
Au   0.000001  -2.820499  -0.000000
Au   1.875227   0.000021  -2.491109
Au  -1.875227  -0.000021  -2.491109
Au   0.000021   1.875230  -2.491110
Au  -0.000021  -1.875230  -2.491110
Au  -1.875227  -0.000021   2.491109
Au   1.875227   0.000021   2.491109
Au   0.000021   1.875230   2.491110
Au  -0.000021  -1.875230   2.491110
Au  -2.291909  -2.291909  -1.300769
Au   2.291909   2.291909  -1.300769
Au   2.291927  -2.291927  -1.300730
Au  -2.291927   2.291927  -1.300730
Au   2.291927  -2.291927   1.300730
Au  -2.291927   2.291927   1.300730
Au  -2.291909  -2.291909   1.300769
Au   2.291909   2.291909   1.300769
