20
-1548.94285600
Au   1.948641   0.000000   0.000000
Au  -1.948641  -0.000000   0.000000
Au  -0.000000   1.948641   0.000000
Au  -0.000000  -1.948641  -0.000000
Au  -1.305878  -1.305878  -2.212659
Au   1.305878   1.305878  -2.212659
Au   1.305878  -1.305878  -2.212659
Au  -1.305878   1.305878  -2.212659
Au   1.305878  -1.305878   2.212659
Au  -1.305878   1.305878   2.212659
Au  -1.305878  -1.305878   2.212659
Au   1.305878   1.305878   2.212659
Au  -3.015829  -3.015829   1.283003
Au   3.015829   3.015829   1.283003
Au   3.015829  -3.015829   1.283003
Au  -3.015829   3.015829   1.283003
Au   3.015829  -3.015829  -1.283003
Au  -3.015829   3.015829  -1.283003
Au  -3.015829  -3.015829  -1.283003
Au   3.015829   3.015829  -1.283003
