20
-1546.81974100
Au  -4.374622  -0.268209   0.000000
Au   4.374622   0.268209   0.000000
Au  -0.272549  -4.336144   0.000000
Au   0.272549   4.336144  -0.000000
Au  -4.159183   2.315183   0.000000
Au   4.159183  -2.315183   0.000000
Au  -2.824687  -4.617597  -0.000000
Au   2.824687   4.617597  -0.000000
Au   4.649149   2.821079  -0.000000
Au  -4.649149  -2.821079   0.000000
Au   2.310758  -4.116567   0.000000
Au  -2.310758   4.116567   0.000000
Au  -1.208836   6.462646   0.000000
Au   1.208836  -6.462646  -0.000000
Au  -6.790432  -1.370223  -0.000000
Au   6.790432   1.370223  -0.000000
Au   1.368464   6.755061   0.000000
Au  -1.368464  -6.755061   0.000000
Au   6.503621  -1.209115   0.000000
Au  -6.503621   1.209115   0.000000
