20
-1546.71716100
Au   1.821524  -0.000000  -0.000000
Au  -1.821524  -0.000000  -0.000000
Au   0.000000   1.821524  -0.000000
Au  -0.000000  -1.821524  -0.000000
Au  -6.164350  -1.283049  -0.000000
Au   6.164350   1.283049   0.000000
Au   1.283049  -6.164350   0.000000
Au  -1.283049   6.164350   0.000000
Au   6.164350  -1.283049  -0.000000
Au  -6.164350   1.283049  -0.000000
Au  -1.283049  -6.164350   0.000000
Au   1.283049   6.164350  -0.000000
Au   1.847534  -3.655697  -0.000000
Au  -1.847534   3.655697  -0.000000
Au   3.655697   1.847534  -0.000000
Au  -3.655697  -1.847534   0.000000
Au  -1.847534  -3.655697  -0.000000
Au   1.847534   3.655697   0.000000
Au  -3.655697   1.847534   0.000000
Au   3.655697  -1.847534   0.000000
