20
-1551.04126200
Au   5.378808   0.000000  -0.000003
Au  -5.378808  -0.000000   0.000003
Au   0.000000   5.378808  -0.000006
Au  -0.000000  -5.378808   0.000006
Au   1.310523   1.310524  -1.879549
Au  -1.310521  -1.310519  -1.879539
Au  -1.310520   1.310524  -1.879546
Au   1.310523  -1.310519  -1.879543
Au  -1.310523   1.310519   1.879543
Au   1.310520  -1.310524   1.879546
Au   1.310521   1.310519   1.879539
Au  -1.310523  -1.310524   1.879549
Au  -1.305838  -3.133157  -0.000005
Au   1.305838   3.133157   0.000005
Au   3.133157  -1.305839   0.000002
Au  -3.133157   1.305839  -0.000002
Au   1.305839  -3.133157  -0.000004
Au  -1.305839   3.133157   0.000004
Au  -3.133157  -1.305839  -0.000003
Au   3.133157   1.305839   0.000003
