20
-1552.84932800
Au  -5.672147  -0.119606  -0.000000
Au   5.672147   0.119606   0.000000
Au  -0.038802  -5.136266   0.000000
Au   0.038802   5.136266   0.000000
Au  -0.906188  -0.958882  -1.374075
Au   0.906188   0.958882  -1.374075
Au   1.638812  -1.537162  -1.327299
Au  -1.638812   1.537162  -1.327299
Au   1.638812  -1.537162   1.327299
Au  -1.638812   1.537162   1.327299
Au  -0.906188  -0.958882   1.374075
Au   0.906188   0.958882   1.374075
Au   3.165734   0.903344   0.000000
Au  -3.165734  -0.903344   0.000000
Au  -2.154084   3.723849   0.000000
Au   2.154084  -3.723849   0.000000
Au  -3.889678   1.755800   0.000000
Au   3.889678  -1.755800   0.000000
Au   1.597056   3.055318   0.000000
Au  -1.597056  -3.055318   0.000000
