20
-1554.00816600
Au   2.214078  -0.156790   3.456451
Au  -2.214078   0.156790   3.456451
Au   0.065336   1.324704   2.970647
Au  -0.065336  -1.324704   2.970647
Au  -1.389476  -0.172500   0.980964
Au   1.389476   0.172500   0.980964
Au  -0.088675  -2.504450   0.607592
Au   0.088675   2.504450   0.607592
Au   1.408138   1.583888  -4.075057
Au  -1.408138  -1.583888  -4.075057
Au  -0.997624   0.886989  -3.314467
Au   0.997624  -0.886989  -3.314467
Au  -0.927151  -1.039463  -1.478929
Au   0.927151   1.039463  -1.478929
Au   1.805446  -1.575460  -0.929639
Au  -1.805446   1.575460  -0.929639
Au  -2.614015  -2.421767   0.020745
Au   2.614015   2.421767   0.020745
Au   2.229459  -2.194268   1.761694
Au  -2.229459   2.194268   1.761694
