20
-1548.49688600
Au   1.818896  -0.000000   0.000000
Au  -1.818896   0.000000   0.000000
Au  -0.000000   1.818896   0.000000
Au   0.000000  -1.818896   0.000000
Au  -3.126835  -1.296724   1.878957
Au   3.126835   1.296724   1.878957
Au   1.296724  -3.126835   1.878957
Au  -1.296724   3.126835   1.878957
Au   3.126835  -1.296724  -1.878957
Au  -3.126835   1.296724  -1.878957
Au  -1.296724  -3.126835  -1.878957
Au   1.296724   3.126835  -1.878957
Au   3.126835   1.296724  -1.878957
Au  -3.126835  -1.296724  -1.878957
Au  -1.296724   3.126835  -1.878957
Au   1.296724  -3.126835  -1.878957
Au  -3.126835   1.296724   1.878957
Au   3.126835  -1.296724   1.878957
Au   1.296724   3.126835   1.878957
Au  -1.296724  -3.126835   1.878957
