20
-1550.71496100
Au   1.345265   1.345265  -0.000000
Au  -1.345265  -1.345265  -0.000000
Au  -1.345265   1.345265  -0.000000
Au   1.345265  -1.345265  -0.000000
Au  -1.854095  -0.000000   3.584558
Au   1.854095   0.000000   3.584558
Au   0.000000  -1.854095   3.584558
Au   0.000000   1.854095   3.584558
Au   1.854095  -0.000000  -3.584558
Au  -1.854095  -0.000000  -3.584558
Au   0.000000  -1.854095  -3.584558
Au   0.000000   1.854095  -3.584558
Au   3.162174  -0.000000   1.306930
Au  -3.162174  -0.000000   1.306930
Au   0.000000   3.162174   1.306930
Au   0.000000  -3.162174   1.306930
Au  -3.162174  -0.000000  -1.306930
Au   3.162174  -0.000000  -1.306930
Au   0.000000   3.162174  -1.306930
Au   0.000000  -3.162174  -1.306930
