20
-1551.03691000
Au   2.245967   2.245967   0.000000
Au  -2.245967  -2.245967   0.000000
Au  -2.245967   2.245967   0.000000
Au   2.245967  -2.245967   0.000000
Au  -1.847787  -0.000000   3.936846
Au   1.847787  -0.000000   3.936846
Au   0.000000  -1.847787   3.936846
Au   0.000000   1.847787   3.936846
Au   1.847787   0.000000  -3.936846
Au  -1.847787   0.000000  -3.936846
Au   0.000000  -1.847787  -3.936846
Au   0.000000   1.847787  -3.936846
Au   1.924764  -0.000000  -1.318330
Au  -1.924764   0.000000  -1.318330
Au  -0.000000   1.924764  -1.318330
Au   0.000000  -1.924764  -1.318330
Au  -1.924764  -0.000000   1.318330
Au   1.924764  -0.000000   1.318330
Au  -0.000000   1.924764   1.318330
Au   0.000000  -1.924764   1.318330
