20
-1548.94285100
Au   1.378152   1.378152   0.000000
Au  -1.378152  -1.378152   0.000000
Au  -1.378152   1.378152   0.000000
Au   1.378152  -1.378152   0.000000
Au   4.264700  -0.000000  -1.283048
Au  -4.264700  -0.000000  -1.283048
Au  -0.000000   4.264700  -1.283048
Au  -0.000000  -4.264700  -1.283048
Au  -4.264700   0.000000   1.283048
Au   4.264700   0.000000   1.283048
Au   0.000000   4.264700   1.283048
Au   0.000000  -4.264700   1.283048
Au   1.846596  -0.000000   2.212820
Au  -1.846596  -0.000000   2.212820
Au  -0.000000   1.846596   2.212820
Au  -0.000000  -1.846596   2.212820
Au  -1.846596   0.000000  -2.212820
Au   1.846596   0.000000  -2.212820
Au   0.000000   1.846596  -2.212820
Au   0.000000  -1.846596  -2.212820
