20
-1553.63589800
Au  -1.830110  -1.943020   0.000000
Au   1.830110   1.943020   0.000000
Au   1.830969  -1.942262  -0.000000
Au  -1.830969   1.942262  -0.000000
Au  -1.799157  -0.000159  -1.927568
Au   1.799157   0.000159  -1.927568
Au   0.000549  -1.947238  -1.904392
Au  -0.000549   1.947238  -1.904392
Au   1.799157   0.000159   1.927568
Au  -1.799157  -0.000159   1.927568
Au   0.000549  -1.947238   1.904392
Au  -0.000549   1.947238   1.904392
Au  -2.488303  -2.467076   2.478015
Au   2.488303   2.467076   2.478015
Au   2.489480  -2.466871   2.477720
Au  -2.489480   2.466871   2.477720
Au   2.489480  -2.466871  -2.477720
Au  -2.489480   2.466871  -2.477720
Au  -2.488303  -2.467076  -2.478015
Au   2.488303   2.467076  -2.478015
