20
-1553.63936600
Au   1.817954   1.817954  -0.000000
Au  -1.817955  -1.817954   0.000001
Au  -1.817954   1.817954  -0.000002
Au   1.817954  -1.817954   0.000001
Au  -1.860789   0.000006  -1.988838
Au   1.860789  -0.000001  -1.988838
Au   0.000003  -1.860789  -1.988838
Au  -0.000004   1.860788  -1.988838
Au   1.860788  -0.000003   1.988838
Au  -1.860789  -0.000001   1.988838
Au   0.000002  -1.860788   1.988838
Au   0.000000   1.860789   1.988838
Au  -2.491067  -2.491067  -2.445612
Au   2.491066   2.491066  -2.445612
Au   2.491064  -2.491064  -2.445611
Au  -2.491063   2.491062  -2.445610
Au   2.491064  -2.491063   2.445611
Au  -2.491065   2.491066   2.445612
Au  -2.491065  -2.491064   2.445611
Au   2.491065   2.491066   2.445612
