20
-1551.04126700
Au  -3.803527  -3.803533  -0.000000
Au   3.803528   3.803533   0.000000
Au   3.803527  -3.803533  -0.000000
Au  -3.803527   3.803533   0.000000
Au  -1.853312   0.000000   1.879422
Au   1.853312   0.000000   1.879421
Au  -0.000000  -1.853309   1.879427
Au  -0.000000   1.853309   1.879427
Au   1.853312  -0.000000  -1.879421
Au  -1.853312  -0.000000  -1.879421
Au  -0.000000  -1.853309  -1.879427
Au   0.000000   1.853309  -1.879427
Au  -1.292166  -3.139004   0.000000
Au   1.292166   3.139004  -0.000000
Au   3.138999  -1.292139   0.000000
Au  -3.138999   1.292139  -0.000000
Au   1.292166  -3.139004   0.000000
Au  -1.292166   3.139004  -0.000000
Au  -3.138999  -1.292139  -0.000000
Au   3.138999   1.292139  -0.000000
