20
-1552.16940500
Au  -3.886902  -3.886902  -0.000000
Au   3.886902   3.886902  -0.000000
Au   3.886902  -3.886902  -0.000000
Au  -3.886902   3.886902  -0.000000
Au   1.851182   0.000000  -1.334785
Au  -1.851182   0.000000  -1.334785
Au   0.000000   1.851182  -1.334785
Au  -0.000000  -1.851182  -1.334785
Au  -1.851182  -0.000000   1.334785
Au   1.851182   0.000000   1.334785
Au  -0.000000   1.851182   1.334785
Au  -0.000000  -1.851182   1.334785
Au   1.303863  -3.698775  -0.000000
Au  -1.303863   3.698775  -0.000000
Au   3.698775   1.303863  -0.000000
Au  -3.698775  -1.303863  -0.000000
Au  -1.303863  -3.698775  -0.000000
Au   1.303863   3.698775  -0.000000
Au  -3.698775   1.303863  -0.000000
Au   3.698775  -1.303863  -0.000000
