20
-1544.63298000
Au  -2.882775  -2.882770  -0.000000
Au   2.882775   2.882770  -0.000000
Au   2.884263  -2.884255  -0.000000
Au  -2.884263   2.884255  -0.000000
Au   1.306572   1.306571  -1.312036
Au  -1.306572  -1.306571  -1.312036
Au  -1.308155   1.308156  -1.312093
Au   1.308155  -1.308156  -1.312093
Au  -1.308155   1.308156   1.312093
Au   1.308155  -1.308156   1.312093
Au   1.306572   1.306571   1.312036
Au  -1.306572  -1.306571   1.312036
Au  -5.380692   3.553649  -0.000000
Au   5.380692  -3.553649  -0.000000
Au  -3.552246  -5.379194  -0.000000
Au   3.552246   5.379194  -0.000000
Au   5.379196   3.552239  -0.000000
Au  -5.379196  -3.552239  -0.000000
Au   3.553655  -5.380688  -0.000000
Au  -3.553655   5.380688  -0.000000
