20
-1550.68056300
Au  -1.589866  -1.199360   0.000000
Au   1.589866   1.199360   0.000000
Au   0.982634  -1.291063   0.000000
Au  -0.982634   1.291063   0.000000
Au   4.089122   4.210924   1.318370
Au  -4.089122  -4.210924   1.318370
Au  -2.736398   2.745467   1.296057
Au   2.736398  -2.745467   1.296057
Au  -2.736398   2.745467  -1.296057
Au   2.736398  -2.745467  -1.296057
Au   4.089122   4.210924  -1.318370
Au  -4.089122  -4.210924  -1.318370
Au  -0.708971   3.837528   0.000000
Au   0.708971  -3.837527   0.000000
Au  -4.071327  -1.964250   0.000000
Au   4.071327   1.964250   0.000000
Au   1.873441   3.813692   0.000000
Au  -1.873442  -3.813692   0.000000
Au   3.528645  -0.582326   0.000000
Au  -3.528645   0.582326   0.000000
