20
-1549.76543000
Au   0.000000  -0.000008  -4.839204
Au  -0.000000  -0.000006   4.991045
Au   0.000000   3.890782  -2.473158
Au  -0.000000  -3.890769  -2.473115
Au  -0.000000   1.303926   0.122778
Au   0.000000  -1.303896   0.122793
Au  -0.000000  -2.599403   4.959832
Au   0.000000   2.599393   4.959801
Au  -0.000000  -4.844747   3.669817
Au   0.000000   4.844768   3.669846
Au   0.000000   2.601465  -4.722309
Au  -0.000000  -2.601481  -4.722281
Au  -0.000000   1.293214  -2.468438
Au   0.000000  -1.293201  -2.468426
Au  -0.000000   3.530792   1.446095
Au   0.000000  -3.530797   1.446051
Au  -0.000000  -1.281951   2.706087
Au   0.000000   1.281911   2.706072
Au   2.128533   0.000004  -3.316643
Au  -2.128533   0.000004  -3.316643
