20
-1551.42659700
Au  -0.000000   0.000000   1.013625
Au   0.000000   0.000000   3.594099
Au  -0.000000  -2.240032  -0.539460
Au   0.000000   2.240032  -0.539460
Au   0.000000   4.483027   3.524843
Au   0.000000  -4.483027   3.524843
Au   0.000000   2.230280   2.278053
Au  -0.000000  -2.230280   2.278053
Au   0.000000   1.321987  -3.151741
Au   0.000000  -1.321987  -3.151741
Au  -0.000000  -4.428233   0.903721
Au  -0.000000   4.428233   0.903721
Au   2.309572   0.000000  -3.621269
Au  -2.309572   0.000000  -3.621269
Au   2.662255   0.000000   0.954814
Au  -2.662255   0.000000   0.954814
Au   3.862031   0.000000  -1.405977
Au  -3.862031   0.000000  -1.405977
Au   1.282311  -0.000000  -1.246847
Au  -1.282311  -0.000000  -1.246847
