20
-1551.77822100
Au  -0.000000   0.000000  -5.402674
Au   0.000000  -0.000000   0.833797
Au  -0.000000   2.121364  -3.923443
Au  -0.000000  -2.121364  -3.923443
Au  -0.000000   1.366655   3.065266
Au   0.000000  -1.366655   3.065266
Au   0.000000   1.398768  -1.362337
Au   0.000000  -1.398768  -1.362337
Au   0.000000   3.923208  -2.079013
Au   0.000000  -3.923208  -2.079013
Au  -0.000000   3.954484   3.160164
Au   0.000000  -3.954484   3.160164
Au   1.381018   0.000000  -3.134992
Au  -1.381018   0.000000  -3.134992
Au   1.322194  -0.000000   4.861156
Au  -1.322194  -0.000000   4.861156
Au  -2.167982  -0.000000   2.301896
Au   2.167982   0.000000   2.301896
Au   2.171524   0.000000  -0.604259
Au  -2.171524  -0.000000  -0.604259
