20
-1551.56896200
Au   0.000000   0.000000   4.343284
Au  -0.000000   0.000000   1.736920
Au   0.000000   2.285999   3.069287
Au   0.000000  -2.285999   3.069287
Au  -0.000000  -3.569649  -1.809691
Au  -0.000000   3.569649  -1.809691
Au   0.000000  -1.343200  -3.192478
Au   0.000000   1.343200  -3.192478
Au  -0.000000  -3.567828   0.806755
Au  -0.000000   3.567828   0.806755
Au  -0.000000  -1.275786  -0.535648
Au   0.000000   1.275786  -0.535648
Au  -2.188003   0.000000   0.402657
Au   2.188003   0.000000   0.402657
Au   4.345078   0.000000  -1.077588
Au  -4.345078   0.000000  -1.077588
Au  -4.522263   0.000000   1.510700
Au   4.522263  -0.000000   1.510700
Au   2.013007   0.000000  -2.214096
Au  -2.013007   0.000000  -2.214096
