20
-1551.61915200
Au  -0.000000  -0.000000  -5.542672
Au  -0.000000  -0.000000  -0.518754
Au  -0.000000   2.181743   0.993649
Au  -0.000000  -2.181743   0.993649
Au  -0.000000  -2.144216  -4.144835
Au  -0.000000   2.144216  -4.144835
Au   0.000000  -2.353289  -1.593291
Au   0.000000   2.353289  -1.593291
Au  -1.288613  -0.000000   4.336864
Au   1.288613  -0.000000   4.336864
Au  -3.929069  -0.000000   1.461696
Au   3.929069  -0.000000   1.461696
Au   1.284178   0.000000  -3.037850
Au  -1.284178   0.000000  -3.037850
Au  -2.592528  -0.000000  -0.754553
Au   2.592528  -0.000000  -0.754553
Au   1.308604   0.000000   1.718593
Au  -1.308604  -0.000000   1.718593
Au  -3.861959  -0.000000   4.050441
Au   3.861959  -0.000000   4.050441
