20
-1552.78883600
Au  -0.000000  -0.000000  -2.862626
Au  -0.000000  -0.000000   3.511878
Au  -0.000000   2.182072  -1.316145
Au  -0.000000  -2.182072  -1.316145
Au   0.000000   1.397943   1.197008
Au   0.000000  -1.397943   1.197008
Au  -1.350286   0.000000  -5.074371
Au   1.350286   0.000000  -5.074371
Au  -1.320252  -0.000000  -0.630521
Au   1.320252   0.000000  -0.630521
Au   2.683922  -0.000000   4.354875
Au  -2.683922  -0.000000   4.354875
Au  -4.609451   0.000000   2.347505
Au   4.609451  -0.000000   2.347505
Au  -2.101234  -0.000000   1.838271
Au   2.101234   0.000000   1.838271
Au   2.746181   0.000000  -2.809040
Au  -2.746181  -0.000000  -2.809040
Au  -3.905179  -0.000000  -0.232209
Au   3.905179   0.000000  -0.232209
