20
-1551.37440400
Au  -1.865930   0.000000   2.138156
Au   1.865930   0.000000   2.138156
Au  -0.000000  -1.865930   2.138156
Au  -0.000000   1.865930   2.138156
Au  -2.927195  -2.927195  -1.555648
Au   2.927195   2.927195  -1.555648
Au   2.927195  -2.927195  -1.555648
Au  -2.927195   2.927195  -1.555648
Au   1.411967   1.411967  -0.049338
Au  -1.411967  -1.411967  -0.049338
Au  -1.411967   1.411967  -0.049338
Au   1.411967  -1.411967  -0.049338
Au  -1.298331  -1.298331  -2.724764
Au   1.298331   1.298331  -2.724764
Au   1.298331  -1.298331  -2.724764
Au  -1.298331   1.298331  -2.724764
Au  -2.512351  -2.512351   2.191593
Au   2.512351   2.512351   2.191593
Au   2.512351  -2.512351   2.191593
Au  -2.512351   2.512351   2.191593
