20
-1551.68060200
Au   0.000049  -0.000000   0.223576
Au  -0.000008   0.000000  -2.403105
Au  -0.000004  -1.407184   2.507486
Au  -0.000004   1.407184   2.507486
Au  -2.523617   0.000000  -3.436466
Au   2.523619   0.000000  -3.436452
Au   2.059111  -0.000000   1.742137
Au  -2.059166   0.000000   1.742175
Au  -3.933908  -0.000000  -5.593969
Au   3.933933   0.000000  -5.593933
Au   4.713084   0.000000  -1.786535
Au  -4.713064  -0.000000  -1.786535
Au   1.347382  -0.000000   4.270564
Au  -1.347390   0.000000   4.270565
Au  -3.981845  -0.000000   3.452606
Au   3.981820   0.000000   3.452595
Au   2.305528  -0.000000  -0.870647
Au  -2.305539   0.000000  -0.870642
Au  -4.461679  -0.000000   0.804563
Au   4.461697   0.000000   0.804531
