20
-1552.44950900
Au   0.000000  -0.000000  -1.331799
Au   0.000000   0.000000   3.183436
Au  -1.293246   0.000000   0.940923
Au   1.293246   0.000000   0.940923
Au  -1.297358   0.000000  -6.150845
Au   1.297358   0.000000  -6.150845
Au  -5.231394   0.000000   3.137821
Au   5.231394  -0.000000   3.137821
Au  -2.624378  -0.000000  -1.324468
Au   2.624378  -0.000000  -1.324468
Au   2.635333   0.000000   3.257756
Au  -2.635333  -0.000000   3.257756
Au   3.860632   0.000000  -3.629389
Au  -3.860632  -0.000000  -3.629389
Au  -3.898718   0.000000   0.914092
Au   3.898718   0.000000   0.914092
Au  -1.293220  -0.000000   5.498810
Au   1.293220   0.000000   5.498810
Au  -1.281851  -0.000000  -3.570519
Au   1.281851  -0.000000  -3.570519
