20
-1551.45523300
Au  -0.000000   0.000000  -4.238283
Au   0.000000  -0.000000   0.345796
Au   0.000000  -3.921542  -2.004081
Au   0.000000   3.921542  -2.004081
Au   0.000000   2.742190   0.340287
Au  -0.000000  -2.742190   0.340287
Au   0.000000  -1.291154   2.600010
Au  -0.000000   1.291154   2.600010
Au  -0.000000  -1.304198   5.202001
Au  -0.000000   1.304198   5.202001
Au   0.000000  -2.615475  -4.256271
Au  -0.000000   2.615475  -4.256271
Au  -0.000000   1.304796  -1.947982
Au  -0.000000  -1.304796  -1.947982
Au  -0.000000  -3.878500   2.712096
Au   0.000000   3.878500   2.712096
Au   2.133095   1.308841  -0.349908
Au  -2.133095  -1.308841  -0.349908
Au   2.133095  -1.308841  -0.349908
Au  -2.133095   1.308841  -0.349908
