20
-1551.03960700
Au  -0.000000   0.000000  -1.905296
Au  -0.000000   0.000000  -4.505413
Au  -0.000000   3.241508  -1.359788
Au  -0.000000  -3.241508  -1.359788
Au  -0.000000   1.319487   2.874716
Au  -0.000000  -1.319487   2.874716
Au  -0.000000  -3.664510   1.283788
Au  -0.000000   3.664510   1.283788
Au  -0.000000  -5.209501   5.975474
Au  -0.000000   5.209501   5.975474
Au  -0.000000  -3.708140   3.888690
Au  -0.000000   3.708141   3.888690
Au  -0.000000   1.276875   0.310727
Au  -0.000000  -1.276875   0.310727
Au   3.057031   0.000000  -3.340503
Au  -3.057031   0.000000  -3.340503
Au   1.298444  -1.900312  -3.213874
Au  -1.298444   1.900312  -3.213874
Au   1.298444   1.900312  -3.213874
Au  -1.298444  -1.900312  -3.213874
