20
-1551.91631600
Au   0.000000  -0.000000  -2.530072
Au   0.000000   0.000000   0.099362
Au   0.000000  -1.285264   2.373888
Au   0.000000   1.285264   2.373888
Au  -0.000000  -2.591287  -2.540811
Au  -0.000000   2.591287  -2.540811
Au  -0.000000   3.905758   2.387659
Au   0.000000  -3.905758   2.387659
Au  -0.000000   2.592947   4.628647
Au  -0.000000  -2.592947   4.628647
Au  -0.000000   1.308935  -4.833846
Au  -0.000000  -1.308935  -4.833846
Au   0.000000  -2.728562   0.078761
Au   0.000000   2.728562   0.078761
Au   2.270089  -0.000000   1.328835
Au  -2.270089  -0.000000   1.328835
Au  -1.934264   1.311174  -1.103889
Au   1.934264  -1.311174  -1.103889
Au  -1.934264  -1.311174  -1.103889
Au   1.934264   1.311174  -1.103889
