20
-1553.10830900
Au  -0.000000  -0.000000  -3.620868
Au  -0.000000   0.000000  -6.293433
Au   0.000000  -2.610566  -3.579500
Au  -0.000000   2.610566  -3.579500
Au   0.000000   1.310615   5.121974
Au  -0.000000  -1.310615   5.121974
Au  -0.000000  -1.301432  -1.344482
Au   0.000000   1.301432  -1.344482
Au  -0.000000  -3.388350   3.468928
Au   0.000000   3.388350   3.468928
Au   0.000000   2.564600  -6.161253
Au  -0.000000  -2.564600  -6.161253
Au   0.000000  -2.399913   1.009670
Au  -0.000000   2.399913   1.009670
Au   1.301390   0.000000   0.612609
Au  -1.301390  -0.000000   0.612609
Au  -1.440555   1.296810   2.914603
Au   1.440555  -1.296810   2.914603
Au  -1.440555  -1.296810   2.914603
Au   1.440555   1.296810   2.914603
