20
-1552.72704700
Au  -0.000000   0.000000   2.712598
Au  -0.000000  -0.000000  -2.032821
Au  -0.000000   3.866450   0.461861
Au  -0.000000  -3.866450   0.461861
Au  -0.000000  -1.277810   0.272437
Au  -0.000000   1.277810   0.272437
Au  -0.000000  -4.430287   3.013643
Au  -0.000000   4.430287   3.013643
Au  -0.000000  -2.708553  -1.918574
Au  -0.000000   2.708553  -1.918574
Au  -0.000000  -1.415153  -4.229010
Au  -0.000000   1.415153  -4.229010
Au  -2.120494  -0.000000  -3.708353
Au   2.120494  -0.000000  -3.708353
Au   2.164478   0.000000   1.305647
Au  -2.164478   0.000000   1.305647
Au   1.371640   2.348454   2.231230
Au  -1.371640  -2.348454   2.231230
Au   1.371640  -2.348454   2.231230
Au  -1.371640   2.348454   2.231230
