20
-1550.38652900
Au  -0.000000  -0.000000   3.092033
Au  -0.000000   0.000000   5.676073
Au  -0.000000   1.301229   0.754579
Au  -0.000000  -1.301229   0.754579
Au   0.000000  -2.185744  -1.804603
Au   0.000000   2.185744  -1.804603
Au  -0.000000  -1.322686  -4.294501
Au  -0.000000   1.322686  -4.294501
Au   0.000000  -3.834193   0.205529
Au   0.000000   3.834193   0.205529
Au   3.342290   0.000000  -0.803118
Au  -3.342290   0.000000  -0.803118
Au  -1.372715  -0.000000  -2.498917
Au   1.372715  -0.000000  -2.498917
Au  -2.111860  -0.000000   1.559488
Au   2.111860  -0.000000   1.559488
Au   4.335594   1.294042   1.248745
Au  -4.335594  -1.294042   1.248745
Au   4.335594  -1.294042   1.248745
Au  -4.335594   1.294042   1.248745
