20
-1549.03912500
Au   1.302709   1.302709   1.391984
Au  -1.302709  -1.302709   1.391984
Au  -1.302709   1.302709   1.391984
Au   1.302709  -1.302709   1.391984
Au   2.949664   2.949664  -2.564506
Au  -2.949664  -2.949664  -2.564506
Au  -2.949664   2.949664  -2.564506
Au   2.949664  -2.949664  -2.564506
Au   2.949960   2.949960   2.564395
Au  -2.949960  -2.949960   2.564395
Au  -2.949960   2.949960   2.564395
Au   2.949960  -2.949960   2.564395
Au  -2.880390  -2.880390  -0.000089
Au   2.880390   2.880390  -0.000089
Au   2.880390  -2.880390  -0.000089
Au  -2.880390   2.880390  -0.000089
Au   1.302688   1.302688  -1.391784
Au  -1.302688  -1.302688  -1.391784
Au  -1.302689   1.302689  -1.391785
Au   1.302689  -1.302689  -1.391784
