20
-1553.20993300
Au   0.000000  -0.000000  -0.995929
Au   0.000000   0.000000   2.655970
Au   0.000000   2.723766   3.228978
Au  -0.000000  -2.723766   3.228978
Au   0.000000   1.905661  -2.813193
Au  -0.000000  -1.905661  -2.813193
Au  -0.000000  -1.973029   0.733629
Au  -0.000000   1.973029   0.733629
Au  -3.724881  -0.000000  -1.138390
Au   3.724881  -0.000000  -1.138390
Au   1.934389  -0.000000   0.829349
Au  -1.934389   0.000000   0.829349
Au   2.517724   0.000000   3.362082
Au  -2.517724  -0.000000   3.362082
Au   1.814148  -0.000000  -2.921943
Au  -1.814148   0.000000  -2.921943
Au  -1.961666   1.936031  -1.055266
Au   1.961666  -1.936031  -1.055266
Au  -1.961666  -1.936031  -1.055266
Au   1.961666   1.936031  -1.055266
