20
-1551.69841400
Au   0.000000  -0.000000  -2.796364
Au   0.000000   0.000000   1.165491
Au   0.000000   2.115205   2.678810
Au   0.000000  -2.115205   2.678810
Au   1.285317   0.000000   3.633469
Au  -1.285317   0.000000   3.633469
Au  -3.908889   0.000000  -0.804559
Au   3.908889   0.000000  -0.804559
Au   3.878119  -0.000000   3.655195
Au  -3.878119  -0.000000   3.655195
Au   1.293105   0.000000  -5.190103
Au  -1.293105   0.000000  -5.190103
Au  -2.609465  -0.000000   1.390691
Au   2.609465  -0.000000   1.390691
Au   2.587312  -0.000000  -2.969477
Au  -2.587312  -0.000000  -2.969477
Au   1.367495   1.292967  -0.789295
Au  -1.367495  -1.292967  -0.789295
Au   1.367495  -1.292967  -0.789295
Au  -1.367495   1.292967  -0.789295
