20
-1550.10406300
Au  -0.000000   0.000000   3.147301
Au  -0.000000   0.000000  -4.187842
Au  -0.000000   2.127299   1.634784
Au  -0.000000  -2.127299   1.634784
Au   3.551281   0.000000  -0.532389
Au  -3.551281   0.000000  -0.532389
Au   1.319579   0.000000   0.779559
Au  -1.319579   0.000000   0.779559
Au  -4.816179   0.000000   1.738691
Au   4.816179   0.000000   1.738691
Au   2.598338   0.000000   3.073087
Au  -2.598338   0.000000   3.073087
Au   1.344042   0.000000  -1.944448
Au  -1.344042   0.000000  -1.944448
Au  -3.863349   0.000000  -3.089586
Au   3.863349   0.000000  -3.089586
Au  -1.409549   2.248288  -0.569714
Au   1.409549  -2.248288  -0.569714
Au  -1.409549  -2.248288  -0.569714
Au   1.409549   2.248288  -0.569714
