20
-1551.26537100
Au  -0.000000   0.000000   2.098986
Au   0.000013  -0.000000  -0.529769
Au   2.336678   0.000000   3.315708
Au  -2.336678   0.000000   3.315708
Au   4.492080   0.000000  -0.743677
Au  -4.492078  -0.000000  -0.743678
Au  -4.605940   0.000000   1.864437
Au   4.605941  -0.000000   1.864437
Au  -2.170288  -0.000000  -1.884840
Au   2.170277  -0.000000  -1.884829
Au  -2.258556   0.000000   0.712396
Au   2.258550  -0.000000   0.712390
Au  -3.866447  -0.000000  -3.838017
Au   3.866450   0.000000  -3.838020
Au   1.295770  -0.000000  -4.314351
Au  -1.295772  -0.000000  -4.314349
Au  -3.124590  -2.136434   2.051867
Au   3.124590   2.136434   2.051867
Au  -3.124590   2.136434   2.051867
Au   3.124590  -2.136434   2.051867
