20
-1550.80269500
Au  -1.842016  -0.000000   2.770708
Au   1.842016   0.000000   2.770708
Au   0.000000  -1.842016   2.770708
Au  -0.000000   1.842016   2.770708
Au  -1.834550  -0.000000  -3.621526
Au   1.834550   0.000000  -3.621526
Au   0.000000  -1.834550  -3.621526
Au  -0.000000   1.834550  -3.621526
Au   1.903170  -0.000000  -0.997209
Au  -1.903170   0.000000  -0.997209
Au   0.000000   1.903170  -0.997209
Au  -0.000000  -1.903170  -0.997209
Au   1.306917  -3.142659   0.924014
Au  -1.306917   3.142659   0.924014
Au   3.142659   1.306917   0.924014
Au  -3.142659  -1.306917   0.924014
Au   1.306917   3.142659   0.924014
Au  -1.306917  -3.142659   0.924014
Au   3.142659  -1.306917   0.924014
Au  -3.142659   1.306917   0.924014
