20
-1553.21418100
Au   0.000000  -1.303490  -3.708390
Au   0.000000   1.303490  -3.708390
Au  -0.000000  -1.338909   1.555388
Au  -0.000000   1.338909   1.555388
Au   0.000000  -3.645253   0.258611
Au  -0.000000   3.645253   0.258611
Au   0.000000  -3.589341  -4.938160
Au   0.000000   3.589341  -4.938160
Au   0.000000  -3.608747   2.882696
Au  -0.000000   3.608747   2.882696
Au  -0.000000   1.323715   4.204044
Au   0.000000  -1.323715   4.204044
Au   0.000000  -3.623759  -2.346288
Au   0.000000   3.623759  -2.346288
Au   0.000000  -1.314006  -1.073307
Au  -0.000000   1.314006  -1.073307
Au   1.904505   0.000000   0.277708
Au  -1.904505   0.000000   0.277708
Au  -1.867391  -0.000000   2.887698
Au   1.867391   0.000000   2.887698
