20
-1554.25777500
Au  -0.000000   1.340060   1.302857
Au   0.000000  -1.340060   1.302857
Au  -0.000000  -3.717730   0.000354
Au   0.000000   3.717730   0.000354
Au   0.000000   3.607695  -2.613154
Au  -0.000000  -3.607695  -2.613154
Au   0.000000  -1.332112  -3.939657
Au  -0.000000   1.332112  -3.939657
Au  -0.000000   1.340071  -1.302746
Au   0.000000  -1.340071  -1.302746
Au  -0.000000   1.331700   3.939645
Au   0.000000  -1.331700   3.939645
Au  -0.000000  -3.607680   2.613870
Au   0.000000   3.607680   2.613870
Au   1.886199  -0.000000  -2.632292
Au  -1.886199  -0.000000  -2.632292
Au   1.886460   0.000000   2.631546
Au  -1.886460  -0.000000   2.631546
Au  -1.957721  -0.000000  -0.000425
Au   1.957721   0.000000  -0.000425
