20
-1553.04278300
Au   0.000000  -1.315361   4.363245
Au   0.000000   1.315361   4.363245
Au   0.000000  -3.609050  -2.218949
Au   0.000000   3.609050  -2.218949
Au   0.000000  -1.333569  -3.548880
Au   0.000000   1.333569  -3.548880
Au   0.000000  -3.565968   3.018151
Au   0.000000   3.565968   3.018151
Au   0.000000  -3.690547   0.407021
Au  -0.000000   3.690547   0.407021
Au  -0.000000   1.350515  -0.904704
Au  -0.000000  -1.350515  -0.904704
Au  -0.000000  -1.315503   1.720752
Au  -0.000000   1.315503   1.720752
Au   1.905428   0.000000   0.402645
Au  -1.905428  -0.000000   0.402645
Au   4.111135   0.000000  -0.951484
Au  -4.111135  -0.000000  -0.951484
Au   1.892555  -0.000000  -2.287798
Au  -1.892555  -0.000000  -2.287798
