20
-1552.12460700
Au   0.000000   4.471194  -2.240765
Au   0.000000  -4.471194  -2.240765
Au   0.000000  -1.907060  -1.823104
Au   0.000000   1.907060  -1.823104
Au  -0.000000   3.574943   0.193860
Au  -0.000000  -3.574943   0.193860
Au  -0.000000  -1.308727   1.472057
Au  -0.000000   1.308727   1.472057
Au   0.000000   1.297977   4.068632
Au   0.000000  -1.297977   4.068632
Au  -3.601146  -0.000000  -1.801419
Au   3.601146  -0.000000  -1.801419
Au   1.312642  -0.000000  -3.070544
Au  -1.312642  -0.000000  -3.070544
Au  -1.952188   0.000000   2.815815
Au   1.952188   0.000000   2.815815
Au   1.307884   0.000000  -0.423456
Au  -1.307884   0.000000  -0.423456
Au   3.613795   0.000000   0.808922
Au  -3.613795   0.000000   0.808922
