20
-1552.36749400
Au  -1.289463  -0.000000   5.818623
Au   1.289463  -0.000000   5.818623
Au  -1.295086   0.000000   0.635664
Au   1.295086  -0.000000   0.635664
Au   1.286570   0.000000   3.234303
Au  -1.286570   0.000000   3.234303
Au   3.575576   0.000000  -3.231994
Au  -3.575576  -0.000000  -3.231994
Au  -3.589595   0.000000  -5.813875
Au   3.589595  -0.000000  -5.813875
Au  -1.289712  -0.000000  -1.954566
Au   1.289712   0.000000  -1.954566
Au   3.578634  -0.000000   1.961508
Au  -3.578634  -0.000000   1.961508
Au  -1.295079   0.000000  -4.582789
Au   1.295079   0.000000  -4.582789
Au  -3.565973  -0.000000  -0.634554
Au   3.565973  -0.000000  -0.634554
Au   3.559835  -0.000000   4.567680
Au  -3.559835  -0.000000   4.567680
