20
-1548.79004500
Au  -1.293468  -0.000000   0.598688
Au   1.293468   0.000000   0.598688
Au   1.315242   0.000000   3.198366
Au  -1.315242  -0.000000   3.198366
Au  -3.534767  -0.000000  -3.318535
Au   3.534767   0.000000  -3.318535
Au   1.292174  -0.000000  -4.590752
Au  -1.292174   0.000000  -4.590752
Au  -1.296155  -0.000000  -1.991564
Au   1.296154  -0.000000  -1.991564
Au  -5.801576  -0.000000  -4.558531
Au   5.801576   0.000000  -4.558531
Au   3.525359  -0.000000  -0.691219
Au  -3.525359  -0.000000  -0.691219
Au   1.289966  -0.000000   5.790914
Au  -1.289966  -0.000000   5.790914
Au   5.770300   0.000000  -1.962475
Au  -5.770300  -0.000000  -1.962475
Au  -3.174988   0.000000   7.525109
Au   3.174988   0.000000   7.525109
