20
-1551.62731300
Au  -1.830110  -0.000048  -2.158285
Au   1.830110   0.000048  -2.158285
Au  -0.000050  -1.830104  -2.158285
Au   0.000050   1.830104  -2.158285
Au  -1.842461   0.000039   0.627665
Au   1.842461  -0.000039   0.627665
Au   0.000041  -1.842456   0.627655
Au  -0.000041   1.842456   0.627655
Au   2.224613   2.224611  -0.896727
Au  -2.224613  -2.224611  -0.896727
Au  -2.224594   2.224592  -0.896640
Au   2.224594  -2.224592  -0.896640
Au  -3.675761  -1.782341   1.213684
Au   3.675761   1.782341   1.213684
Au   1.782288  -3.675703   1.213625
Au  -1.782288   3.675703   1.213625
Au  -3.675688   1.782311   1.213626
Au   3.675688  -1.782311   1.213626
Au   1.782317   3.675775   1.213682
Au  -1.782317  -3.675775   1.213682
