20
-1555.68056800
Au   0.000000   0.000181   3.333898
Au  -0.000000  -0.000143  -0.125707
Au   0.000000  -2.545465   0.708234
Au  -0.000000   2.545258   0.708376
Au   0.000001   2.618890   3.328689
Au  -0.000001  -2.618650   3.328551
Au  -0.000000   1.338836  -4.368472
Au   0.000000  -1.338748  -4.368547
Au  -0.000000   2.165367  -1.868906
Au   0.000000  -2.165476  -1.869095
Au   1.374114  -0.000005  -2.570223
Au  -1.374114  -0.000005  -2.570223
Au   1.938110  -1.328667   2.090194
Au  -1.938240   1.329017   2.090536
Au   1.938240   1.329016   2.090535
Au  -1.938110  -1.328666   2.090193
Au  -2.192061  -1.416590  -0.507134
Au   2.192094   1.416220  -0.506882
Au  -2.192095   1.416219  -0.506882
Au   2.192061  -1.416589  -0.507134
