20
-1552.95631000
Au  -0.000000   0.000000  -2.729839
Au   0.000000   0.000000   2.115528
Au  -0.000000   2.493593   2.855716
Au  -0.000000  -2.493593   2.855716
Au  -0.000000  -2.186697   0.265042
Au  -0.000000   2.186697   0.265042
Au   0.000000   1.337998  -4.965650
Au   0.000000  -1.337998  -4.965650
Au  -3.812254  -0.000000   0.228279
Au   3.812254   0.000000   0.228279
Au  -1.303659   0.000000  -0.421242
Au   1.303659   0.000000  -0.421242
Au   2.184844   1.384739   1.798420
Au  -2.184844  -1.384739   1.798420
Au   2.184844  -1.384738   1.798420
Au  -2.184844   1.384739   1.798420
Au  -2.606052   2.246432  -0.625914
Au   2.606052  -2.246432  -0.625914
Au  -2.606052  -2.246432  -0.625914
Au   2.606052   2.246432  -0.625914
