20
-1552.08398900
Au   0.000014  -0.000014   3.265292
Au   0.000009  -0.000000  -2.377274
Au  -0.000042   3.376996  -0.806306
Au  -0.000030  -3.377002  -0.806304
Au   0.000005   1.797101   1.332839
Au   0.000002  -1.797092   1.332849
Au   0.000015   2.522308   3.857994
Au   0.000017  -2.522296   3.857987
Au   2.534120  -0.000004  -2.887699
Au  -2.534120   0.000001  -2.887703
Au   2.001884  -0.000001   1.526461
Au  -2.001867   0.000001   1.526479
Au  -1.690945   1.324598  -0.766742
Au   1.690938  -1.324602  -0.766746
Au  -1.690945  -1.324592  -0.766746
Au   1.690937   1.324603  -0.766745
Au  -2.538889  -3.793514  -0.966834
Au   2.538889   3.793513  -0.967011
Au  -2.538884   3.793514  -0.966803
Au   2.538892  -3.793519  -0.966988
