20
-1551.79901400
Au   0.000000   0.000000  -1.781286
Au   0.000000   0.000000  -4.427985
Au   2.248646  -0.000000  -3.090744
Au  -2.248646   0.000000  -3.090744
Au  -3.538239   0.000000  -0.844149
Au   3.538239  -0.000000  -0.844149
Au   3.548825   0.000000   1.776501
Au  -3.548825  -0.000000   1.776501
Au  -1.306803   0.000000   3.120103
Au   1.306803  -0.000000   3.120103
Au  -1.289041   0.000000   0.471246
Au   1.289041  -0.000000   0.471246
Au  -1.345138  -2.271313   1.754593
Au   1.345138   2.271313   1.754593
Au  -1.345138   2.271313   1.754593
Au   1.345138  -2.271313   1.754593
Au   1.321584  -2.209392  -0.918754
Au  -1.321584   2.209392  -0.918754
Au   1.321584   2.209392  -0.918754
Au  -1.321584  -2.209392  -0.918754
