20
-1550.63541200
Au  -0.000000  -1.327398  -0.238071
Au  -0.000000   1.327398  -0.238071
Au   0.000000   3.556312  -4.177723
Au  -0.000000  -3.556312  -4.177723
Au   0.000000   3.634157  -1.600120
Au   0.000000  -3.634157  -1.600120
Au  -0.000000   3.637595   0.980638
Au   0.000000  -3.637595   0.980638
Au  -0.000000   1.441425   2.377876
Au  -0.000000  -1.441425   2.377876
Au  -0.000000   1.314036   4.961053
Au   0.000000  -1.314036   4.961053
Au  -0.000000  -1.300499  -2.876364
Au  -0.000000   1.300499  -2.876364
Au   1.955365  -0.000000  -1.359363
Au  -1.955365   0.000000  -1.359363
Au   2.315803   1.337902   0.966037
Au  -2.315803  -1.337902   0.966037
Au   2.315803  -1.337902   0.966037
Au  -2.315803   1.337902   0.966037
