20
-1551.83019800
Au   0.000000   1.431807  -2.012459
Au  -0.000000  -1.431807  -2.012459
Au   0.000000   2.004193   2.381806
Au   0.000000  -2.004193   2.381806
Au   1.324817  -0.000000   1.260052
Au  -1.324817   0.000000   1.260052
Au  -3.561134  -0.000000   2.582217
Au   3.561134   0.000000   2.582217
Au  -1.287206  -0.000000   3.849877
Au   1.287206   0.000000   3.849877
Au  -1.306814   0.000000  -3.798643
Au   1.306814  -0.000000  -3.798643
Au  -2.162917   0.000000  -1.203443
Au   2.162917  -0.000000  -1.203443
Au  -3.831125   0.000000  -3.198080
Au   3.831125   0.000000  -3.198080
Au  -1.342673  -2.329426   0.069336
Au   1.342673   2.329426   0.069336
Au  -1.342673   2.329426   0.069336
Au   1.342673  -2.329426   0.069336
