20
-1552.36615200
Au   0.000003   1.955255  -0.465127
Au   0.000003  -1.955255  -0.465127
Au   5.026004   0.000000   3.394640
Au  -5.026076  -0.000000   3.394647
Au   2.798175  -0.000003  -3.933412
Au  -2.798092   0.000003  -3.933324
Au   3.946830   0.000002  -1.599919
Au  -3.946779  -0.000002  -1.599881
Au  -1.321711  -0.000001  -1.756907
Au   1.321713   0.000001  -1.757028
Au  -3.947733   0.000002   1.005834
Au   3.947747  -0.000002   1.005828
Au   2.453511   0.000001   3.189274
Au  -2.453627  -0.000001   3.189353
Au   1.285357  -0.000001   0.887743
Au  -1.285374   0.000001   0.887800
Au   2.618683  -1.900331  -0.361143
Au  -2.618659   1.900326  -0.361061
Au   2.618683   1.900332  -0.361136
Au  -2.618659  -1.900327  -0.361055
