20
-1550.47466800
Au  -1.315414   0.000000   3.824124
Au   1.315414  -0.000000   3.824124
Au  -3.616327  -0.000004  -0.181895
Au   3.616327   0.000004  -0.181895
Au   3.592204   0.000001  -2.810668
Au  -3.592204  -0.000001  -2.810668
Au   3.587865   0.000000   2.547817
Au  -3.587865  -0.000000   2.547817
Au  -1.331081   0.000001   1.206185
Au   1.331081  -0.000001   1.206185
Au   5.805435   0.000000   1.226822
Au  -5.805435  -0.000000   1.226822
Au   1.306238  -0.000000  -4.084869
Au  -1.306238   0.000000  -4.084869
Au  -1.321402   0.000001  -1.466558
Au   1.321402  -0.000001  -1.466558
Au  -1.297080  -2.236948  -0.130478
Au   1.297080   2.236948  -0.130478
Au  -1.297074   2.236950  -0.130478
Au   1.297074  -2.236950  -0.130478
