20
-1550.61080200
Au   0.000000  -0.000000  -2.151986
Au  -0.000000   0.000000   0.607605
Au   0.000000   1.311508   4.184925
Au   0.000000  -1.311508   4.184925
Au   0.000000   2.364111   1.810341
Au   0.000000  -2.364111   1.810341
Au  -0.000000   2.314861  -0.849766
Au  -0.000000  -2.314861  -0.849766
Au   1.311291   2.066840  -3.088794
Au  -1.311291  -2.066840  -3.088794
Au   1.311291  -2.066840  -3.088794
Au  -1.311291   2.066840  -3.088794
Au  -1.626049   3.888073   0.424095
Au   1.626049  -3.888073   0.424095
Au  -1.626049  -3.888073   0.424095
Au   1.626049   3.888073   0.424095
Au  -2.234658  -1.335197   0.478044
Au   2.234658   1.335197   0.478044
Au  -2.234658   1.335197   0.478044
Au   2.234658  -1.335197   0.478044
