20
-1551.43716400
Au  -0.000000  -3.621179   2.314044
Au   0.000000   3.621179   2.314044
Au   0.000000  -3.493347  -0.296252
Au  -0.000000   3.493347  -0.296252
Au  -0.000000   3.669961   4.886698
Au   0.000000  -3.669961   4.886698
Au   0.000000   2.800374  -2.849926
Au  -0.000000  -2.800374  -2.849926
Au  -0.000000  -1.289610   1.162320
Au   0.000000   1.289610   1.162320
Au  -0.000000   1.307836   3.787214
Au   0.000000  -1.307836   3.787214
Au  -1.331969   1.337708  -1.096735
Au   1.331969  -1.337708  -1.096735
Au  -1.331969  -1.337708  -1.096735
Au   1.331969   1.337708  -1.096735
Au   2.374864  -1.905564  -3.405314
Au  -2.374864   1.905564  -3.405314
Au   2.374864   1.905564  -3.405314
Au  -2.374864  -1.905564  -3.405314
