20
-1554.60888900
Au   1.649667  -0.218878  -0.215356
Au  -2.562315   0.081432  -0.593327
Au  -0.218886   1.649573  -0.215325
Au   0.081436  -2.562291  -0.593323
Au   2.277944   2.277975   0.308998
Au  -2.547260  -2.547263  -0.175478
Au  -2.484775   2.664665  -0.959626
Au   2.664674  -2.484816  -0.959604
Au  -1.608544  -1.608539  -2.424067
Au   1.552594   1.552626  -2.181246
Au   0.938612  -0.996265  -2.621432
Au  -0.996287   0.938625  -2.621432
Au  -0.910134  -2.755216   1.861469
Au   0.401106   2.266284   2.250445
Au   3.941710  -1.163025   0.920185
Au  -2.133286   1.605673   1.593526
Au  -1.163000   3.941692   0.920170
Au   1.605663  -2.133248   1.593528
Au   2.266303   0.401124   2.250428
Au  -2.755222  -0.910131   1.861466
