20
-1553.42710200
Au   0.000000  -3.477423  -0.995953
Au  -0.000000   3.477423  -0.995953
Au  -0.000000   3.614288   1.655461
Au   0.000000  -3.614288   1.655461
Au  -0.000000  -1.330386   3.084207
Au   0.000000   1.330386   3.084207
Au   0.000000   1.299124   0.425222
Au  -0.000000  -1.299124   0.425222
Au  -2.394669  -0.000000   0.207668
Au   2.394669   0.000000   0.207668
Au   1.306874   0.000000  -4.091525
Au  -1.306874  -0.000000  -4.091525
Au  -2.165782   2.143454   1.712148
Au   2.165782  -2.143454   1.712148
Au  -2.165782  -2.143454   1.712148
Au   2.165782   2.143454   1.712148
Au   1.340797  -1.352033  -1.854687
Au  -1.340797   1.352033  -1.854687
Au   1.340797   1.352033  -1.854687
Au  -1.340797  -1.352033  -1.854687
