20
-1553.69663800
Au   0.000000  -1.295828   0.716734
Au   0.000000   1.295828   0.716734
Au  -0.000000  -3.449003  -0.729087
Au  -0.000000   3.449003  -0.729087
Au  -0.000000   1.309094   3.378878
Au  -0.000000  -1.309094   3.378878
Au  -1.927918   0.000000   2.140841
Au   1.927918   0.000000   2.140841
Au  -3.318774   0.000000  -2.794867
Au   3.318774   0.000000  -2.794867
Au   3.058324  -0.000000  -0.192227
Au  -3.058324  -0.000000  -0.192227
Au   1.314119  -1.330230  -1.715409
Au  -1.314119   1.330230  -1.715409
Au   1.314119   1.330230  -1.715409
Au  -1.314119  -1.330230  -1.715409
Au  -2.314673   2.463917   0.455272
Au   2.314673  -2.463917   0.455272
Au  -2.314673  -2.463917   0.455272
Au   2.314673   2.463917   0.455272
