20
-1555.16625700
Au   0.000000   2.330806  -2.487499
Au   0.000000  -2.330806  -2.487499
Au   0.000000   1.379065  -0.028311
Au  -0.000000  -1.379065  -0.028311
Au   3.186024   0.000000  -0.169650
Au  -3.186024  -0.000000  -0.169650
Au   1.304702  -0.000000  -2.048355
Au  -1.304702  -0.000000  -2.048355
Au   3.847632  -0.000000   2.451958
Au  -3.847632  -0.000000   2.451958
Au   1.325874   0.000000   1.763750
Au  -1.325874  -0.000000   1.763750
Au  -2.227968  -2.309268  -1.130223
Au   2.227968   2.309268  -1.130223
Au  -2.227968   2.309268  -1.130223
Au   2.227968  -2.309268  -1.130224
Au  -2.834286   2.146421   1.389277
Au   2.834286  -2.146421   1.389277
Au  -2.834286  -2.146421   1.389277
Au   2.834286   2.146421   1.389277
