20
-1552.82969300
Au   1.360070   0.000000  -0.866911
Au  -1.360070   0.000000  -0.866911
Au  -3.201166   0.000000   1.035383
Au   3.201166  -0.000000   1.035383
Au  -1.297537  -0.000000   2.828261
Au   1.297537  -0.000000   2.828261
Au   3.895275   0.000000  -1.573930
Au  -3.895275  -0.000000  -1.573930
Au   1.292471  -2.549042  -1.524166
Au  -1.292471   2.549042  -1.524166
Au   1.292471   2.549042  -1.524166
Au  -1.292471  -2.549042  -1.524166
Au   1.331263  -1.996224   1.098258
Au  -1.331263   1.996224   1.098258
Au   1.331263   1.996224   1.098258
Au  -1.331263  -1.996224   1.098258
Au   3.554957  -2.236526  -0.285492
Au  -3.554957   2.236526  -0.285492
Au   3.554957   2.236526  -0.285492
Au  -3.554957  -2.236526  -0.285492
