20
-1551.31152100
Au   1.356291   0.000000   2.059388
Au  -1.356291  -0.000000   2.059388
Au   1.292805  -0.000000  -3.350038
Au  -1.292805   0.000000  -3.350038
Au   1.391130  -0.000000  -0.584197
Au  -1.391130   0.000000  -0.584197
Au  -3.536858   0.000001  -2.062474
Au   3.536858  -0.000001  -2.062474
Au  -1.324441   2.323122   0.664294
Au   1.324441  -2.323122   0.664294
Au  -1.324441  -2.323122   0.664294
Au   1.324441   2.323122   0.664294
Au  -1.295509   2.343395   3.261603
Au   1.295509  -2.343395   3.261603
Au  -1.295510  -2.343396   3.261604
Au   1.295510   2.343396   3.261604
Au   1.311363  -2.234478  -1.957237
Au  -1.311363   2.234478  -1.957237
Au   1.311362   2.234478  -1.957237
Au  -1.311362  -2.234478  -1.957237
