20
-1553.94975600
Au   0.000000   1.462565  -1.640553
Au   0.000000  -1.462565  -1.640553
Au  -1.311443  -0.000000  -3.390271
Au   1.311443   0.000000  -3.390271
Au   3.453615  -0.000000   1.930112
Au  -3.453615   0.000000   1.930112
Au  -1.343228   0.000000   0.303964
Au   1.343228  -0.000000   0.303964
Au  -1.305883  -1.334635   2.640447
Au   1.305883   1.334635   2.640447
Au  -1.305883   1.334635   2.640447
Au   1.305883  -1.334635   2.640447
Au   1.328496   2.627064   0.318644
Au  -1.328496  -2.627064   0.318644
Au   1.328496  -2.627064   0.318644
Au  -1.328496   2.627064   0.318644
Au  -2.691499  -1.323053  -1.560717
Au   2.691499   1.323053  -1.560717
Au  -2.691499   1.323053  -1.560717
Au   2.691499  -1.323053  -1.560717
