20
-1553.88094100
Au   0.000000  -1.304162   2.994355
Au  -0.000000   1.304162   2.994355
Au  -0.000000   1.307980  -1.065601
Au   0.000000  -1.307980  -1.065601
Au  -1.324992  -2.468620   1.089169
Au   1.324992   2.468620   1.089169
Au  -1.324992   2.468620   1.089169
Au   1.324992  -2.468620   1.089169
Au   1.299599   3.605953  -1.277887
Au  -1.299599  -3.605953  -1.277887
Au   1.299599  -3.605953  -1.277887
Au  -1.299599   3.605953  -1.277887
Au  -3.494811  -3.552461   0.117458
Au   3.494811   3.552461   0.117458
Au  -3.494811   3.552461   0.117458
Au   3.494811  -3.552461   0.117458
Au  -2.640353  -1.309788  -0.893117
Au   2.640353   1.309788  -0.893117
Au  -2.640353   1.309788  -0.893117
Au   2.640353  -1.309788  -0.893117
