20
-1554.87658200
Au   3.224661   0.032091   1.197383
Au  -2.591802   0.268104   0.155315
Au   0.496805   0.337602  -1.739734
Au  -2.018012  -0.841221  -2.205764
Au   1.948790   1.939496  -0.150564
Au  -0.593321  -1.658028  -0.167327
Au   2.002016  -1.484769  -0.548112
Au  -0.751430   2.150139  -0.210053
Au   0.403504  -2.143769  -2.576875
Au  -1.557841   1.682440  -2.706834
Au   0.687488   2.933067  -2.251282
Au  -1.754055  -3.449065  -1.951061
Au  -3.150993  -2.264233  -0.106909
Au   3.850887   2.519731   1.584595
Au  -2.788561   2.582368   1.378424
Au   2.990417  -2.523843   1.638588
Au   0.868781  -1.021595   1.986947
Au  -0.932710   0.883458   2.109946
Au   1.545418   1.613131   2.449662
Au  -1.880042  -1.555103   2.113655
