20
-1552.97678300
Au  -3.559125   0.000001   0.270627
Au   3.559125  -0.000001   0.270626
Au   1.307873   0.000001   2.946536
Au  -1.307873  -0.000001   2.946536
Au  -1.328952   1.366600   0.741155
Au   1.328952  -1.366600   0.741155
Au  -1.328936  -1.366583   0.741159
Au   1.328936   1.366583   0.741159
Au  -2.227983   1.297700  -1.731260
Au   2.227983  -1.297700  -1.731260
Au  -2.227983  -1.297699  -1.731261
Au   2.227983   1.297699  -1.731261
Au  -1.303409   3.549266  -0.733663
Au   1.303409  -3.549266  -0.733663
Au  -1.303409  -3.549268  -0.733664
Au   1.303409   3.549268  -0.733664
Au   3.578770   2.609351   0.115186
Au  -3.578770  -2.609351   0.115186
Au   3.578768  -2.609350   0.115186
Au  -3.578768   2.609350   0.115186
