20
-1543.44907100
Au  -0.000000  -0.000000  -1.264862
Au  -0.000000  -0.000000   1.264862
Au  -0.000000  -2.540503   0.000000
Au   2.198579   1.269611   0.000000
Au  -2.198579   1.269611   0.000000
Au   0.000000   2.540503   0.000000
Au  -2.198579  -1.269611   0.000000
Au   2.198579  -1.269611   0.000000
Au  -0.000000   4.761700  -1.305875
Au  -4.120871  -2.382156  -1.305948
Au   4.120871  -2.382156  -1.305948
Au   0.000000  -4.761700  -1.305875
Au   4.120871   2.382156  -1.305948
Au  -4.120871   2.382156  -1.305948
Au   4.120871   2.382156   1.305948
Au   0.000000  -4.761700   1.305875
Au  -4.120871   2.382156   1.305948
Au  -4.120871  -2.382156   1.305948
Au  -0.000000   4.761700   1.305875
Au   4.120871  -2.382156   1.305948
