20
-1554.66108800
Au   2.857682   3.155040  -1.446997
Au  -2.857682  -3.155040  -1.446997
Au  -3.274990   2.917805  -1.129528
Au   3.274990  -2.917804  -1.129528
Au   1.596056   0.868247  -1.114340
Au  -1.596056  -0.868247  -1.114340
Au  -0.925307   1.685134  -1.007160
Au   0.925307  -1.685134  -1.007159
Au  -1.181680  -0.584267   1.593684
Au   1.181680   0.584268   1.593684
Au   1.059285  -2.078000   1.617801
Au  -1.059285   2.078000   1.617801
Au   1.069297   3.031775   0.445827
Au  -1.069297  -3.031775   0.445826
Au  -3.055484   0.824235   0.399976
Au   3.055484  -0.824235   0.399976
Au   1.242172  -4.138035  -0.056444
Au  -1.242171   4.138036  -0.056444
Au  -3.356579  -1.754372   0.697180
Au   3.356579   1.754372   0.697180
