20
-1551.83428700
Au   0.000000  -0.000000  -1.428270
Au  -0.000000   0.000000   1.428270
Au   0.000001  -2.301403   0.000000
Au   2.409291   1.305220   0.000001
Au  -2.409293   1.305222  -0.000001
Au  -0.000001   2.301403  -0.000000
Au  -2.409291  -1.305220  -0.000001
Au   2.409293  -1.305222   0.000001
Au   0.000048  -2.460918  -2.618677
Au   2.303624   1.299519  -2.600095
Au  -2.303600   1.299529  -2.600097
Au  -0.000027   2.460918  -2.618677
Au  -2.303635  -1.299508  -2.600095
Au   2.303590  -1.299540  -2.600097
Au  -2.303617  -1.299527   2.600096
Au  -0.000065   2.460918   2.618677
Au   2.303608  -1.299521   2.600097
Au   2.303643   1.299499   2.600095
Au   0.000012  -2.460918   2.618677
Au  -2.303581   1.299548   2.600098
