20
-1555.67462700
Au   0.000000   0.000000   1.333254
Au   0.000000   0.000000  -1.333254
Au   2.757898   0.000000   0.000000
Au  -1.295302   2.181823   0.000000
Au  -1.295302  -2.181823   0.000000
Au  -2.757898  -0.000000   0.000000
Au   1.295302  -2.181823   0.000000
Au   1.295302   2.181823   0.000000
Au   0.000000  -2.583607   2.314935
Au   2.254198   1.289502   2.292010
Au  -2.254198   1.289502   2.292010
Au   0.000000   2.583607   2.314935
Au  -2.254198  -1.289502   2.292010
Au   2.254198  -1.289502   2.292010
Au  -2.254198  -1.289502  -2.292010
Au   0.000000   2.583607  -2.314935
Au   2.254198  -1.289502  -2.292010
Au   2.254198   1.289502  -2.292010
Au   0.000000  -2.583607  -2.314935
Au  -2.254198   1.289502  -2.292010
