20
-1549.31697500
Au  -0.000000  -0.000000  -1.277522
Au   0.000000  -0.000000   1.277522
Au  -2.581366  -0.000000  -0.000000
Au   1.291024  -2.236374  -0.000000
Au   1.291024   2.236374  -0.000000
Au   2.581366   0.000000  -0.000000
Au  -1.291024   2.236374  -0.000000
Au  -1.291024  -2.236374  -0.000000
Au  -0.000000  -4.103809   1.309612
Au   3.553984   2.051551   1.309522
Au  -3.553984   2.051551   1.309522
Au   0.000000   4.103809   1.309612
Au  -3.553984  -2.051551   1.309522
Au   3.553984  -2.051551   1.309522
Au  -3.553984  -2.051551  -1.309522
Au   0.000000   4.103809  -1.309612
Au   3.553984  -2.051551  -1.309522
Au   3.553984   2.051551  -1.309522
Au  -0.000000  -4.103809  -1.309612
Au  -3.553984   2.051551  -1.309522
