20
-1551.88076700
Au  -0.000000   0.000000  -3.178478
Au   0.000000  -0.000000   3.178478
Au  -2.712854   0.000000   0.000000
Au   1.324699  -2.316527   0.000000
Au   1.324699   2.316527   0.000000
Au   2.712854  -0.000000   0.000000
Au  -1.324699   2.316527   0.000000
Au  -1.324699  -2.316527   0.000000
Au  -2.677035  -0.000000   2.609693
Au   1.297059  -2.205091   2.599802
Au   1.297059   2.205091   2.599802
Au   2.677035   0.000000   2.609693
Au  -1.297059   2.205091   2.599802
Au  -1.297059  -2.205091   2.599802
Au   1.297059  -2.205091  -2.599802
Au  -2.677035  -0.000000  -2.609693
Au   1.297059   2.205091  -2.599802
Au  -1.297059   2.205091  -2.599802
Au   2.677035   0.000000  -2.609693
Au  -1.297059  -2.205091  -2.599802
