20
-1551.88075400
Au  -0.000000   0.000000  -3.177706
Au   0.000000  -0.000000   3.177706
Au   2.709211  -0.000000  -0.000000
Au  -1.324313   2.319376  -0.000000
Au  -1.324313  -2.319377  -0.000000
Au  -2.709211   0.000000  -0.000000
Au   1.324313  -2.319376  -0.000000
Au   1.324313   2.319377  -0.000000
Au   2.676564   0.000000  -2.609918
Au  -1.297171   2.205144  -2.599654
Au  -1.297171  -2.205144  -2.599654
Au  -2.676564  -0.000000  -2.609918
Au   1.297171  -2.205144  -2.599654
Au   1.297171   2.205144  -2.599654
Au  -1.297171   2.205144   2.599654
Au   2.676564   0.000000   2.609918
Au  -1.297171  -2.205144   2.599654
Au   1.297171  -2.205144   2.599654
Au  -2.676564  -0.000000   2.609918
Au   1.297171   2.205144   2.599654
