20
-1555.92423400
Au   0.000005   0.000035   4.017849
Au   0.000091   0.000014  -1.466307
Au  -2.605222   1.031318  -0.187422
Au   0.581244  -2.741731  -0.186869
Au   1.757117   1.484421   0.016676
Au   2.605132  -1.031362  -0.187282
Au  -0.581197   2.741622  -0.187016
Au  -1.756953  -1.484202   0.016702
Au  -1.649347   1.953005  -2.468842
Au  -0.908309  -2.456363  -2.334440
Au   2.572227   0.485133  -2.334595
Au   1.649534  -1.952900  -2.468761
Au   0.908314   2.456402  -2.334401
Au  -2.572036  -0.485183  -2.334771
Au  -1.880744   0.128614   2.172779
Au   2.284224  -2.704335   1.873898
Au   0.187874   1.876289   2.173227
Au   1.880523  -0.128639   2.172656
Au  -2.284388   2.704345   1.873604
Au  -0.188089  -1.876483   2.173316
