20
-1555.67649900
Au  -0.000000   0.000000  -1.330912
Au  -0.000000   0.000000   1.331533
Au   2.315580  -1.318511   0.000007
Au   0.000001   2.508977  -0.000124
Au  -2.315574  -1.318509  -0.000024
Au  -2.315580   1.318511   0.000007
Au  -0.000001  -2.508977  -0.000124
Au   2.315574   1.318509  -0.000024
Au   2.563518  -0.000072   2.288239
Au  -1.302727   2.257238   2.303163
Au  -1.302687  -2.257310   2.303167
Au  -2.563518   0.000072   2.288239
Au   1.302727  -2.257238   2.303163
Au   1.302687   2.257310   2.303167
Au  -2.563765  -0.000083  -2.288150
Au   1.302737  -2.257152  -2.303296
Au   1.302785   2.257073  -2.303293
Au   2.563765   0.000083  -2.288150
Au  -1.302737   2.257152  -2.303296
Au  -1.302785  -2.257073  -2.303293
