20
-1555.28875700
Au  -0.000000  -0.000000  -3.173544
Au  -0.000000   0.000000  -0.585556
Au   2.287430  -1.363510   0.207083
Au  -0.000000   2.688099   0.212855
Au  -2.287430  -1.363509   0.207081
Au  -2.287431   1.363511   0.207086
Au   0.000000  -2.688099   0.212857
Au   2.287430   1.363510   0.207084
Au  -2.453892   0.000000   2.465876
Au   1.310999  -2.332898   2.500075
Au   1.310999   2.332898   2.500074
Au   2.453892  -0.000000   2.465876
Au  -1.310999   2.332898   2.500075
Au  -1.310999  -2.332898   2.500074
Au   2.457720  -0.000012  -2.047272
Au  -1.288542   2.284421  -2.083114
Au  -1.288557  -2.284398  -2.083113
Au  -2.457721  -0.000017  -2.047272
Au   1.288560  -2.284406  -2.083113
Au   1.288539   2.284412  -2.083113
