20
-1554.32217100
Au  -0.000000   0.000000  -3.903216
Au  -0.000000  -0.000000   3.903216
Au  -0.000000   0.000000  -1.304012
Au  -0.000000  -0.000000   1.304012
Au   1.863803  -1.407606  -2.612051
Au  -1.863803   1.407606  -2.612051
Au  -1.407606  -1.863804   2.612051
Au   1.407606   1.863804   2.612051
Au   0.619811   2.252040  -2.611811
Au  -0.619811  -2.252040  -2.611811
Au   2.252040  -0.619811   2.611811
Au  -2.252040   0.619811   2.611811
Au   0.917949  -2.700257   1.740892
Au  -0.917949   2.700257   1.740892
Au  -2.700257  -0.917949  -1.740892
Au   2.700257   0.917949  -1.740892
Au   1.024685   2.079144   0.000204
Au  -1.024685  -2.079144   0.000204
Au   2.079144  -1.024686  -0.000204
Au  -2.079144   1.024686  -0.000204
