20
-1551.75448100
Au  -0.909248  -0.933308  -2.058742
Au   0.909247   0.933306  -2.058740
Au   0.359241  -1.243960   0.212417
Au  -0.359241   1.243960   0.212419
Au  -3.949287  -2.483169  -0.046658
Au   3.949287   2.483169  -0.046657
Au   3.458031  -4.383955   0.797007
Au  -3.458030   4.383955   0.797007
Au  -5.265770   2.585445   1.303357
Au   5.265770  -2.585445   1.303358
Au   3.244403   4.841403  -0.823394
Au  -3.244403  -4.841403  -0.823393
Au  -1.394343  -3.040388  -0.477794
Au   1.394343   3.040388  -0.477794
Au   2.834461  -1.843185   0.759959
Au  -2.834461   1.843186   0.759959
Au  -1.048157   3.753615   0.101993
Au   1.048156  -3.753614   0.101992
Au   2.191235   0.607638   0.231852
Au  -2.191235  -0.607638   0.231851
