20
-1551.88783000
Au  -0.000000  -0.000000   2.235500
Au  -0.000000  -0.000000  -2.235500
Au  -0.000000   0.000000   4.797208
Au  -0.000000   0.000000  -4.797208
Au  -0.000000   3.920441  -0.000000
Au   0.000000  -3.920441  -0.000000
Au   0.000000  -1.315690   0.000000
Au  -0.000000   1.315690  -0.000000
Au   6.734853  -0.000000  -0.000000
Au  -6.734853  -0.000000  -0.000000
Au   2.224075  -0.000000   0.000000
Au  -2.224075  -0.000000   0.000000
Au  -2.276991   2.665047   0.000000
Au   2.276991  -2.665047   0.000000
Au   2.276991   2.665047   0.000000
Au  -2.276991  -2.665047   0.000000
Au   4.498229   1.313739   0.000000
Au  -4.498229  -1.313739   0.000000
Au  -4.498229   1.313739   0.000000
Au   4.498229  -1.313739   0.000000
