20
-1547.74936800
Au   0.000000   0.000000  -3.936628
Au   0.000000   0.000000   3.936628
Au   0.000000   0.000000   1.343435
Au   0.000000   0.000000  -1.343435
Au  -0.000000  -2.240145   0.000000
Au   0.000000   2.240145   0.000000
Au   0.000000  -4.822692  -0.000000
Au  -0.000000   4.822692  -0.000000
Au  -2.225943   0.000000   0.000000
Au   2.225943  -0.000000  -0.000000
Au   4.783691   0.000000  -0.000000
Au  -4.783691  -0.000000  -0.000000
Au  -2.573629   2.570938   0.000000
Au   2.573629  -2.570938  -0.000000
Au   2.573629   2.570938   0.000000
Au  -2.573629  -2.570938  -0.000000
Au   0.000000   2.274037   2.668921
Au  -0.000000  -2.274037   2.668921
Au   0.000000   2.274037  -2.668921
Au  -0.000000  -2.274037  -2.668921
