20
-1550.26202800
Au  -0.000000   0.000000   1.376816
Au  -0.000000   0.000000  -1.376816
Au   0.000000   0.000000   3.975241
Au  -0.000000   0.000000  -3.975241
Au   0.000000   4.841045  -0.000000
Au   0.000000  -4.841045  -0.000000
Au   0.000000   2.221437   0.000000
Au  -0.000000  -2.221437   0.000000
Au  -4.760021  -0.000000   0.000000
Au   4.760021  -0.000000   0.000000
Au  -2.198489  -0.000000   0.000000
Au   2.198489   0.000000   0.000000
Au  -0.000000   4.853250  -2.561395
Au   0.000000  -4.853250  -2.561395
Au  -0.000000   4.853250   2.561395
Au   0.000000  -4.853250   2.561395
Au  -0.000000  -2.265865  -2.672547
Au   0.000000   2.265865  -2.672547
Au  -0.000000  -2.265865   2.672547
Au   0.000000   2.265865   2.672547
