20
-1551.31875600
Au  -0.000000   0.000000  -4.473078
Au  -0.000000   0.000000   4.473078
Au  -0.000000   0.000000  -1.905150
Au  -0.000000   0.000000   1.905150
Au   0.284435  -3.576384  -0.000000
Au  -0.284435   3.576384   0.000000
Au   0.956664   5.846152  -0.000000
Au  -0.956664  -5.846152   0.000000
Au   2.861358  -3.383219  -0.000000
Au  -2.861358   3.383219   0.000000
Au  -2.427196  -3.713952   0.000000
Au   2.427196   3.713952  -0.000000
Au   1.201730   1.406741  -0.000000
Au  -1.201730  -1.406741  -0.000000
Au  -1.407799   1.204076   0.000000
Au   1.407799  -1.204076  -0.000000
Au  -3.805984  -1.515898   0.000000
Au   3.805984   1.515899  -0.000000
Au   4.046489  -1.071879   0.000000
Au  -4.046489   1.071879   0.000000
