20
-1550.18184600
Au  -0.000000   0.000000  -3.896427
Au   0.000000  -0.000000   3.896427
Au  -0.000000   0.000000  -1.287566
Au   0.000000   0.000000   1.287566
Au   0.000000  -3.097150   0.000000
Au   0.000000   3.097150   0.000000
Au  -0.000000  -5.675095   0.000000
Au  -0.000000   5.675095   0.000000
Au   1.893291  -1.321852   0.000000
Au  -1.893291   1.321852   0.000000
Au  -1.893291  -1.321852   0.000000
Au   1.893291   1.321852   0.000000
Au   3.740251  -0.000000   1.297158
Au  -3.740251  -0.000000   1.297158
Au  -3.740251  -0.000000  -1.297158
Au   3.740251  -0.000000  -1.297158
Au   2.558503  -0.000000   3.601642
Au  -2.558503   0.000000   3.601642
Au  -2.558503   0.000000  -3.601642
Au   2.558503   0.000000  -3.601642
