20
-1552.03286200
Au  -0.000000  -0.000000   5.205715
Au  -0.000000   0.000000  -5.205715
Au   0.000000  -0.000000  -2.566611
Au   0.000000   0.000000   2.566611
Au   0.000000  -3.841232  -0.000000
Au  -0.000000   3.841232  -0.000000
Au  -0.000000   1.262806   0.000000
Au   0.000000  -1.262806  -0.000000
Au   2.316945   2.392678  -0.000000
Au  -2.316945  -2.392678   0.000000
Au  -2.316945   2.392678   0.000000
Au   2.316945  -2.392678  -0.000000
Au   2.267008   0.000000  -1.287200
Au  -2.267008   0.000000  -1.287200
Au  -2.267008   0.000000   1.287200
Au   2.267008   0.000000   1.287200
Au  -2.252809  -0.000000   3.906115
Au   2.252809  -0.000000   3.906115
Au   2.252809   0.000000  -3.906115
Au  -2.252809   0.000000  -3.906115
