20
-1549.65438100
Au  -0.000000  -0.000000  -2.561746
Au  -0.000000   0.000000   2.561746
Au  -0.000000   0.000000   5.176542
Au   0.000000  -0.000000  -5.176542
Au   0.000000   3.861369  -0.000000
Au   0.000000  -3.861369   0.000000
Au  -0.000000   1.274602   0.000000
Au  -0.000000  -1.274602   0.000000
Au   2.216639   0.000000   1.279712
Au  -2.216639  -0.000000   1.279712
Au  -2.216639  -0.000000  -1.279712
Au   2.216639  -0.000000  -1.279712
Au  -2.261667  -0.000000   3.897030
Au   2.261667   0.000000   3.897030
Au   2.261667  -0.000000  -3.897030
Au  -2.261667  -0.000000  -3.897030
Au   4.786342   0.000000  -1.289755
Au  -4.786342  -0.000000  -1.289755
Au  -4.786342   0.000000   1.289755
Au   4.786342   0.000000   1.289755
