20
-1548.29544600
Au  -0.000000  -0.000000  -2.264552
Au   0.000000   0.000000   2.264552
Au   0.000000  -0.000000   4.850846
Au   0.000000   0.000000  -4.850846
Au   0.000000   3.957595  -0.000000
Au   0.000000  -3.957595   0.000000
Au  -0.000000   1.309470  -0.000000
Au  -0.000000  -1.309470   0.000000
Au  -2.590032   1.292924  -0.000000
Au   2.590032  -1.292924  -0.000000
Au   2.590032   1.292924   0.000000
Au  -2.590032  -1.292924  -0.000000
Au  -2.573266  -3.885671   0.000000
Au   2.573266   3.885671   0.000000
Au   2.573266  -3.885671  -0.000000
Au  -2.573266   3.885671  -0.000000
Au   0.000000  -2.640348   2.266968
Au   0.000000   2.640348   2.266968
Au   0.000000  -2.640348  -2.266968
Au  -0.000000   2.640348  -2.266968
