20
-1551.72453000
Au  -0.000000   0.000000  -1.293810
Au   0.000000  -0.000000   1.293810
Au  -0.000000   0.000000  -3.890388
Au  -0.000000  -0.000000   3.890388
Au  -0.000000  -3.070923   0.000000
Au  -0.000000   3.070923  -0.000000
Au  -0.000000   6.548356   0.000000
Au  -0.000000  -6.548356   0.000000
Au   1.904854  -1.295477  -0.000000
Au  -1.904854   1.295477   0.000000
Au  -1.904854  -1.295477  -0.000000
Au   1.904854   1.295477  -0.000000
Au  -0.000000   4.822469  -1.953649
Au  -0.000000  -4.822469  -1.953649
Au  -0.000000   4.822469   1.953649
Au  -0.000000  -4.822469   1.953649
Au  -0.000000  -2.286718   2.528371
Au  -0.000000   2.286718   2.528371
Au  -0.000000  -2.286718  -2.528371
Au  -0.000000   2.286718  -2.528371
