20
-1550.74041000
Au   0.000000  -0.000000   1.263500
Au   0.000000  -0.000000  -1.263500
Au   0.000000   0.000000   3.864032
Au   0.000000  -0.000000  -3.864032
Au  -0.000000   5.049141  -0.000000
Au   0.000000  -5.049141  -0.000000
Au  -0.000000  -2.459811  -0.000000
Au  -0.000000   2.459811   0.000000
Au  -2.305645   1.287830  -0.000000
Au   2.305645  -1.287830   0.000000
Au   2.305645   1.287830   0.000000
Au  -2.305645  -1.287830   0.000000
Au  -2.310934   0.000000   2.375502
Au   2.310934  -0.000000   2.375502
Au   2.310934   0.000000  -2.375502
Au  -2.310934   0.000000  -2.375502
Au  -0.000000   2.267562  -2.606099
Au  -0.000000  -2.267562  -2.606099
Au   0.000000   2.267562   2.606099
Au   0.000000  -2.267562   2.606099
