20
-1550.74040600
Au   0.000000  -0.000000  -3.864177
Au  -0.000000  -0.000000   3.864177
Au   0.000000  -0.000000   1.263550
Au   0.000000  -0.000000  -1.263550
Au  -0.000000  -2.459502   0.000000
Au  -0.000000   2.459502  -0.000000
Au  -0.000000   5.048736  -0.000000
Au  -0.000000  -5.048736   0.000000
Au  -2.305949   1.287799  -0.000000
Au   2.305949  -1.287799   0.000000
Au   2.305949   1.287799  -0.000000
Au  -2.305949  -1.287799  -0.000000
Au  -2.310894   0.000000  -2.375677
Au   2.310894  -0.000000  -2.375677
Au   2.310894   0.000000   2.375677
Au  -2.310894  -0.000000   2.375677
Au  -0.000000   2.267535  -2.606409
Au   0.000000  -2.267535  -2.606409
Au   0.000000   2.267535   2.606409
Au  -0.000000  -2.267535   2.606409
