20
-1548.91372200
Au  -0.000000  -0.000000   4.781084
Au   0.000000   0.000000  -4.781084
Au   0.000000   0.000000   2.212116
Au   0.000000  -0.000000  -2.212116
Au   0.000000   3.898817  -0.000000
Au  -0.000000  -3.898817   0.000000
Au   0.000000  -1.279847  -0.000000
Au   0.000000   1.279847  -0.000000
Au   2.301889   0.000000   3.561063
Au  -2.301889   0.000000   3.561063
Au  -2.301889  -0.000000  -3.561063
Au   2.301889   0.000000  -3.561063
Au  -3.593090  -0.000000  -1.299692
Au   3.593090  -0.000000  -1.299692
Au   3.593090   0.000000   1.299692
Au  -3.593090   0.000000   1.299692
Au  -0.000000  -2.575359   2.230223
Au  -0.000000   2.575359   2.230223
Au   0.000000  -2.575359  -2.230223
Au   0.000000   2.575359  -2.230223
