20
-1551.60458100
Au  -0.000000  -0.000000   3.887738
Au  -0.000000   0.000000  -3.887738
Au  -0.000000   0.000000   1.270559
Au   0.000000  -0.000000  -1.270559
Au   0.000000  -2.575790   0.000000
Au   0.000000   2.575790  -0.000000
Au   0.000000  -5.166503  -0.000000
Au  -0.000000   5.166503  -0.000000
Au  -2.234781   1.293607   0.000000
Au   2.234781  -1.293607  -0.000000
Au   2.234781   1.293607   0.000000
Au  -2.234781  -1.293607  -0.000000
Au   1.823315   1.351499   2.579754
Au  -1.823315  -1.351499   2.579754
Au  -1.823315   1.351499  -2.579754
Au   1.823315  -1.351499  -2.579754
Au  -1.823315  -1.351499  -2.579754
Au   1.823315   1.351499  -2.579754
Au   1.823315  -1.351499   2.579754
Au  -1.823315   1.351499   2.579754
