20
-1551.40049700
Au   0.000000   0.000000   4.626724
Au  -0.000000  -0.000000  -4.626724
Au  -0.000000   0.000000  -1.994187
Au   0.000000  -0.000000   1.994187
Au  -0.000000   2.011890  -0.000000
Au  -0.000000  -2.011890   0.000000
Au   0.000000   4.629353   0.000000
Au  -0.000000  -4.629353  -0.000000
Au  -2.328130  -3.514319   0.000000
Au   2.328130   3.514319  -0.000000
Au   2.328130  -3.514319   0.000000
Au  -2.328130   3.514319  -0.000000
Au   2.220958  -1.296459  -1.333000
Au  -2.220958   1.296459  -1.333000
Au  -2.220958  -1.296459   1.333000
Au   2.220958   1.296459   1.333000
Au  -2.220958   1.296459   1.333000
Au   2.220958  -1.296459   1.333000
Au   2.220958   1.296459  -1.333000
Au  -2.220958  -1.296459  -1.333000
