20
-1550.21064000
Au   0.000000  -0.000000   1.284276
Au   0.000000  -0.000000  -1.284276
Au  -0.000000  -0.000000  -3.933430
Au   0.000000  -0.000000   3.933430
Au  -2.276177  -0.000025  -0.000000
Au   2.276177   0.000025  -0.000000
Au  -0.000020  -2.251038  -0.000000
Au   0.000020   2.251038  -0.000000
Au   4.865315   0.000006   0.000000
Au  -4.865315  -0.000006   0.000000
Au   0.000007   4.810192   0.000000
Au  -0.000007  -4.810192   0.000000
Au  -2.250534   0.000085  -2.641995
Au   2.250534  -0.000085  -2.641995
Au   0.000083  -2.247628  -2.594299
Au  -0.000083   2.247628  -2.594299
Au   2.250534  -0.000085   2.641995
Au  -2.250534   0.000085   2.641995
Au   0.000083  -2.247628   2.594299
Au  -0.000083   2.247628   2.594299
