20
-1548.00214200
Au   0.000000   0.000000  -3.909102
Au   0.000000   0.000000   3.909102
Au   0.000000  -0.000000   1.330825
Au   0.000000  -0.000000  -1.330825
Au  -1.283293   1.868148  -0.000000
Au   1.283293  -1.868148  -0.000000
Au   1.283293   1.868148  -0.000000
Au  -1.283293  -1.868148   0.000000
Au  -2.995038  -3.783597  -0.000000
Au   2.995038   3.783597   0.000000
Au   2.995038  -3.783597  -0.000000
Au  -2.995038   3.783597   0.000000
Au   3.821773  -1.290550  -0.000000
Au  -3.821773   1.290550  -0.000000
Au  -3.821773  -1.290550  -0.000000
Au   3.821773   1.290550  -0.000000
Au  -5.513677   3.276322  -0.000000
Au   5.513677  -3.276322   0.000000
Au   5.513677   3.276322   0.000000
Au  -5.513677  -3.276322  -0.000000
