20
-1550.59413900
Au  -0.000004   1.302898  -0.000000
Au   0.000006  -1.302898  -0.000000
Au   0.000002   3.975804  -0.000000
Au   0.000000  -3.975804  -0.000000
Au   4.463255   1.304538   0.000000
Au  -4.463255  -1.304539   0.000000
Au  -4.463254   1.304541   0.000000
Au   4.463254  -1.304540  -0.000000
Au  -2.215714   2.627216   0.000000
Au   2.215711  -2.627216   0.000000
Au   2.215710   2.627210  -0.000000
Au  -2.215713  -2.627210   0.000000
Au   2.259895  -5.284168   0.000000
Au  -2.259895   5.284168   0.000000
Au  -2.259894  -5.284169   0.000000
Au   2.259893   5.284169  -0.000000
Au   4.461730  -3.907651  -0.000000
Au  -4.461729   3.907651  -0.000000
Au  -4.461726  -3.907649  -0.000000
Au   4.461727   3.907649   0.000000
