20
-1550.21063800
Au   0.000000   0.000000   1.284421
Au   0.000000   0.000000  -1.284421
Au  -0.000000   0.000000  -3.932937
Au   0.000000   0.000000   3.932937
Au   2.250970   0.000000  -0.000000
Au  -2.250970  -0.000000  -0.000000
Au   0.000000   2.275962  -0.000000
Au  -0.000000  -2.275962  -0.000000
Au  -4.810050  -0.000000  -0.000000
Au   4.810050   0.000000  -0.000000
Au  -0.000000  -4.865104  -0.000000
Au   0.000000   4.865104  -0.000000
Au   2.247943   0.000000  -2.594089
Au  -2.247943  -0.000000  -2.594089
Au   0.000000   2.250896  -2.641756
Au  -0.000000  -2.250896  -2.641756
Au  -2.247943  -0.000000   2.594089
Au   2.247943   0.000000   2.594089
Au   0.000000   2.250896   2.641756
Au  -0.000000  -2.250896   2.641756
