20
-1549.49443000
Au  -0.000000  -0.000000  -6.078419
Au   0.000000  -0.000000   6.078420
Au   0.000000   0.000000  -3.508916
Au  -0.000000   0.000000   3.508915
Au   1.303693   0.000000   1.292188
Au  -1.303693   0.000000   1.292188
Au  -1.303690   0.000000  -1.292189
Au   1.303689   0.000000  -1.292189
Au  -2.646269   0.000000  -3.508886
Au   2.646269  -0.000000  -3.508885
Au   2.646268   0.000000   3.508888
Au  -2.646268   0.000000   3.508887
Au  -2.582026  -0.000000   6.112750
Au   2.582026  -0.000000   6.112751
Au   2.582027  -0.000000  -6.112750
Au  -2.582027   0.000000  -6.112751
Au  -4.854114   0.000000   4.874874
Au   4.854114   0.000000   4.874874
Au   4.854108  -0.000000  -4.874875
Au  -4.854108  -0.000000  -4.874874
