20
-1548.42941300
Au   0.000000  -0.000000  -3.566395
Au   0.000000   0.000000   3.566395
Au  -0.000000  -1.884891  -0.000000
Au   0.000000   1.884891   0.000000
Au  -2.098072  -0.000000  -5.052962
Au   2.098072   0.000000  -5.052962
Au   2.098072  -0.000000   5.052962
Au  -2.098072   0.000000   5.052962
Au   3.400616   0.000000   2.843416
Au  -3.400616   0.000000   2.843416
Au  -3.400616  -0.000000  -2.843416
Au   3.400616   0.000000  -2.843416
Au  -5.446571   0.000000  -1.294319
Au   5.446571  -0.000000  -1.294319
Au   5.446571   0.000000   1.294319
Au  -5.446571  -0.000000   1.294319
Au   1.298189   0.000000  -1.321332
Au  -1.298189   0.000000  -1.321332
Au  -1.298189  -0.000000   1.321332
Au   1.298189  -0.000000   1.321332
