20
-1545.23996000
Au   0.000000  -0.000000  -1.291398
Au   0.000000   0.000000   1.291398
Au  -0.000000   0.000000   3.917884
Au   0.000000  -0.000000  -3.917884
Au   0.000000  -4.808463  -0.000000
Au   0.000000   4.808463  -0.000000
Au  -0.000000  -2.238518   0.000000
Au   0.000000   2.238518   0.000000
Au  -0.000000  -2.256112   2.601693
Au  -0.000000   2.256112   2.601693
Au  -0.000000  -2.256112  -2.601693
Au   0.000000   2.256112  -2.601693
Au   1.288562  -4.227498   3.711889
Au  -1.288562   4.227498   3.711889
Au  -1.288562  -4.227498  -3.711889
Au   1.288562   4.227498  -3.711889
Au  -1.288562   4.227498  -3.711889
Au   1.288562  -4.227498  -3.711889
Au   1.288562   4.227498   3.711889
Au  -1.288562  -4.227498   3.711889
