20
-1553.79033400
Au   0.000000  -0.000000   3.963283
Au  -0.000000  -0.000000  -3.963283
Au  -0.000000   0.000000   1.348008
Au  -0.000000   0.000000  -1.348008
Au  -0.000000   2.266629   0.000000
Au  -0.000000  -2.266629  -0.000000
Au  -0.000000  -5.946664   0.000000
Au   0.000000   5.946664  -0.000000
Au   0.000000  -2.275857  -2.657115
Au  -0.000000   2.275857  -2.657115
Au   0.000000  -2.275857   2.657115
Au   0.000000   2.275857   2.657115
Au  -1.326436  -4.123361  -1.324178
Au   1.326436   4.123361  -1.324178
Au   1.326436  -4.123361   1.324178
Au  -1.326436   4.123361   1.324178
Au   1.326436   4.123361   1.324178
Au  -1.326436  -4.123361   1.324178
Au  -1.326436   4.123361  -1.324178
Au   1.326436  -4.123361  -1.324178
