20
-1551.07781900
Au   0.000000   0.000002  -3.557933
Au  -0.000000   0.000016   3.557933
Au   0.000000  -6.159624   0.000001
Au   0.000000   6.159623  -0.000001
Au  -0.000000   1.330257  -1.301323
Au  -0.000000  -1.330258  -1.301322
Au  -0.000000   1.330259   1.301325
Au  -0.000000  -1.330257   1.301320
Au   0.000000  -2.572897   3.623584
Au   0.000000   2.572884   3.623582
Au   0.000000  -2.572892  -3.623583
Au   0.000000   2.572888  -3.623583
Au   0.000000   6.235636   2.581021
Au   0.000000  -6.235638   2.581019
Au   0.000000   6.235639  -2.581020
Au   0.000000  -6.235638  -2.581018
Au   0.000000  -3.927418  -1.377463
Au  -0.000000   3.927417  -1.377461
Au  -0.000000  -3.927417   1.377459
Au   0.000000   3.927417   1.377464
