20
-1551.94037800
Au   0.000000   0.000000   3.563574
Au  -0.000000  -0.000000  -3.563574
Au  -0.000000  -3.540750   0.000000
Au   0.000000   3.540750  -0.000000
Au   0.000000   1.287141   1.292013
Au   0.000000  -1.287141   1.292013
Au   0.000000   1.287141  -1.292013
Au  -0.000000  -1.287141  -1.292013
Au   0.000000  -5.800756  -1.308148
Au   0.000000   5.800756  -1.308148
Au  -0.000000  -5.800756   1.308148
Au   0.000000   5.800756   1.308148
Au  -0.000000  -3.552245  -2.632191
Au   0.000000   3.552245  -2.632191
Au  -0.000000  -3.552245   2.632191
Au  -0.000000   3.552245   2.632191
Au  -0.000000   2.232958   4.867408
Au   0.000000  -2.232958   4.867408
Au   0.000000   2.232958  -4.867408
Au   0.000000  -2.232958  -4.867408
