20
-1542.92686100
Au  -0.000000  -0.000000  -1.807014
Au   0.000000   0.000000   1.807014
Au  -0.000000   0.000000  -4.377965
Au   0.000000  -0.000000   4.377965
Au   1.893340  -0.000000  -0.000000
Au  -1.893340   0.000000  -0.000000
Au   0.000000   1.893340  -0.000000
Au  -0.000000  -1.893340  -0.000000
Au   4.460523   0.000000  -0.000000
Au  -4.460523   0.000000  -0.000000
Au  -0.000000   4.460523  -0.000000
Au  -0.000000  -4.460523  -0.000000
Au   6.714026  -0.000000   1.280842
Au  -6.714026   0.000000   1.280842
Au   0.000000   6.714026   1.280842
Au   0.000000  -6.714026   1.280842
Au  -6.714026   0.000000  -1.280842
Au   6.714026  -0.000000  -1.280842
Au   0.000000   6.714026  -1.280842
Au  -0.000000  -6.714026  -1.280842
