20
-1551.41310300
Au   0.000000  -0.000000   2.241109
Au   0.000000   0.000000  -2.241109
Au   0.000000   1.341772  -0.000000
Au   0.000000  -1.341772   0.000000
Au   0.000000  -1.302980   4.534488
Au   0.000000   1.302980   4.534488
Au  -0.000000  -1.302980  -4.534488
Au   0.000000   1.302980  -4.534488
Au   0.000000  -5.001004  -1.298087
Au   0.000000   5.001004  -1.298087
Au  -0.000000  -5.001004   1.298087
Au   0.000000   5.001004   1.298087
Au   0.000000  -3.902810  -4.489250
Au   0.000000   3.902810  -4.489250
Au  -0.000000  -3.902810   4.489250
Au   0.000000   3.902810   4.489250
Au   0.000000  -2.595536   2.256760
Au  -0.000000   2.595536   2.256760
Au   0.000000  -2.595536  -2.256760
Au  -0.000000   2.595536  -2.256760
