20
-1549.12110000
Au   0.000000  -0.000000  -1.276040
Au  -0.000000  -0.000000   1.276040
Au   0.000000  -0.000000  -3.861866
Au  -0.000000  -0.000000   3.861866
Au   2.537002  -0.000000  -0.000000
Au  -2.537002  -0.000000   0.000000
Au  -5.120831   0.000000  -0.000000
Au   5.120831   0.000000   0.000000
Au   1.272223   2.226052   0.000000
Au  -1.272223  -2.226052  -0.000000
Au  -1.272223   2.226052  -0.000000
Au   1.272223  -2.226052   0.000000
Au  -4.320125   4.782139  -0.000000
Au   4.320125  -4.782139   0.000000
Au   4.320125   4.782139   0.000000
Au  -4.320125  -4.782139  -0.000000
Au   3.858734  -2.258335  -0.000000
Au  -3.858734   2.258335   0.000000
Au  -3.858734  -2.258335   0.000000
Au   3.858734   2.258335  -0.000000
