20
-1550.54743000
Au   0.000000   0.000000   2.255229
Au  -0.000000  -0.000000  -2.255229
Au   0.000000   4.898600   0.000000
Au   0.000000  -4.898600  -0.000000
Au  -1.304507   0.000000   0.000000
Au   1.304507   0.000000  -0.000000
Au  -3.907907   0.000000   0.000000
Au   3.907907  -0.000000   0.000000
Au  -1.289273   2.589277   0.000000
Au   1.289273  -2.589277  -0.000000
Au   1.289273   2.589277  -0.000000
Au  -1.289273  -2.589277  -0.000000
Au  -2.597119   4.872030  -0.000000
Au   2.597119  -4.872030   0.000000
Au   2.597119   4.872030   0.000000
Au  -2.597119  -4.872030  -0.000000
Au   3.867807   2.588018   0.000000
Au  -3.867807  -2.588018   0.000000
Au  -3.867807   2.588018  -0.000000
Au   3.867807  -2.588018  -0.000000
