20
-1550.01600400
Au   0.000000   0.000000   4.498152
Au   0.000000   0.000000  -4.498152
Au  -0.000008   0.000000   1.933314
Au  -0.000008   0.000000  -1.933314
Au   0.000000   1.791642  -0.000000
Au   0.000000  -1.791642  -0.000000
Au   4.499423  -0.000000  -0.000000
Au  -4.499423   0.000000  -0.000000
Au  -2.690676  -1.883002  -0.000000
Au   2.690683   1.883007  -0.000000
Au   2.690683  -1.883007  -0.000000
Au  -2.690676   1.883002  -0.000000
Au  -1.299509   4.075188  -0.000000
Au   1.299509  -4.075188  -0.000000
Au   1.299509   4.075188  -0.000000
Au  -1.299509  -4.075188  -0.000000
Au  -2.609961   0.000000  -1.822790
Au   2.609962   0.000000  -1.822790
Au   2.609962   0.000000   1.822790
Au  -2.609961   0.000000   1.822790
