20
-1551.65692200
Au  -0.000000   0.000000   3.851656
Au   0.000000   0.000000  -3.851656
Au   0.000000  -0.000000   1.265018
Au  -0.000000  -0.000000  -1.265018
Au  -0.000000  -2.363422   0.000000
Au  -0.000000   2.363422  -0.000000
Au   4.650336  -0.000000   0.000000
Au  -4.650336  -0.000000   0.000000
Au  -2.368119   1.304000  -0.000000
Au   2.368119  -1.304000   0.000000
Au   2.368119   1.304000   0.000000
Au  -2.368119  -1.304000  -0.000000
Au  -2.304173   0.000000  -2.427141
Au   2.304173   0.000000  -2.427141
Au   2.304173   0.000000   2.427141
Au  -2.304173   0.000000   2.427141
Au  -4.879490  -0.000000  -2.555051
Au   4.879490  -0.000000  -2.555051
Au   4.879490  -0.000000   2.555051
Au  -4.879490  -0.000000   2.555051
