20
-1548.72251200
Au   0.000000  -0.000000  -3.870492
Au   0.000000  -0.000000   3.870492
Au  -0.000000   0.000000  -1.273144
Au  -0.000000   0.000000   1.273144
Au   2.518802   0.000000  -0.000000
Au  -2.518802   0.000000   0.000000
Au   5.080639   0.000000   0.000000
Au  -5.080639  -0.000000  -0.000000
Au   1.277616   2.214090   0.000000
Au  -1.277616  -2.214090  -0.000000
Au  -1.277616   2.214090   0.000000
Au   1.277616  -2.214090   0.000000
Au   1.294074  -4.779047   0.000000
Au  -1.294074   4.779047   0.000000
Au  -1.294074  -4.779047  -0.000000
Au   1.294074   4.779047   0.000000
Au   2.282670  -0.000000   2.598125
Au  -2.282670   0.000000   2.598125
Au  -2.282670  -0.000000  -2.598125
Au   2.282670  -0.000000  -2.598125
