20
-1548.12417700
Au  -0.000000   0.000000   2.228205
Au  -0.000000  -0.000000  -2.228205
Au  -0.000000   0.000000  -4.788907
Au  -0.000000   0.000000   4.788907
Au  -3.941000   0.000000   0.000000
Au   3.941000  -0.000000  -0.000000
Au   1.330036  -0.000000  -0.000000
Au  -1.330036   0.000000   0.000000
Au   1.317892  -2.573920  -0.000000
Au  -1.317892   2.573920   0.000000
Au  -1.317892  -2.573920   0.000000
Au   1.317892   2.573920  -0.000000
Au   2.610349  -0.000000  -2.289044
Au  -2.610349   0.000000  -2.289044
Au  -2.610349   0.000000   2.289044
Au   2.610349  -0.000000   2.289044
Au   5.211235  -0.000000   2.250397
Au  -5.211235  -0.000000   2.250397
Au  -5.211235   0.000000  -2.250397
Au   5.211235  -0.000000  -2.250397
