20
-1550.16154200
Au  -0.000000  -0.000000   4.930628
Au  -0.000000  -0.000000  -4.930628
Au  -0.000000  -0.000000   2.317383
Au  -0.000000  -0.000000  -2.317383
Au  -4.059436   0.000000  -0.000000
Au   4.059436  -0.000000   0.000000
Au  -1.299036  -0.000000  -0.000000
Au   1.299036   0.000000   0.000000
Au   2.709226  -2.193425  -0.000000
Au  -2.709226   2.193425   0.000000
Au  -2.709226  -2.193425   0.000000
Au   2.709226   2.193425  -0.000000
Au  -2.661326   0.000000  -2.204211
Au   2.661326  -0.000000  -2.204211
Au   2.661326  -0.000000   2.204211
Au  -2.661326  -0.000000   2.204211
Au  -2.558981   0.000000  -4.795673
Au   2.558981  -0.000000  -4.795673
Au   2.558981  -0.000000   4.795673
Au  -2.558981  -0.000000   4.795673
