20
-1551.08730300
Au  -0.000000  -0.000000   4.531914
Au  -0.000000   0.000000  -4.531914
Au   0.000000  -3.882603   0.000000
Au  -0.000000   3.882603   0.000000
Au   0.000000   1.276013   0.000000
Au  -0.000000  -1.276013  -0.000000
Au  -2.500378  -0.000000  -0.000000
Au   2.500378   0.000000  -0.000000
Au   2.273110   2.594988  -0.000000
Au  -2.273110  -2.594988  -0.000000
Au  -2.273110   2.594988   0.000000
Au   2.273110  -2.594988   0.000000
Au  -1.292092   0.000000   2.275183
Au   1.292092  -0.000000   2.275183
Au   1.292092  -0.000000  -2.275183
Au  -1.292092   0.000000  -2.275183
Au   3.895309  -0.000000   2.212367
Au  -3.895309   0.000000   2.212367
Au  -3.895309   0.000000  -2.212367
Au   3.895309  -0.000000  -2.212367
