20
-1550.24169100
Au   0.000000   0.000000   2.386401
Au   0.000000  -0.000000  -2.386401
Au  -0.000000   1.302750  -0.000000
Au   0.000000  -1.302750  -0.000000
Au  -0.000000  -3.880462  -0.000000
Au  -0.000000   3.880462   0.000000
Au  -2.385374  -0.000000  -0.000000
Au   2.385374  -0.000000   0.000000
Au  -2.626583   0.000000  -2.627693
Au   2.626583  -0.000000  -2.627693
Au   2.626583   0.000000   2.627693
Au  -2.626583  -0.000000   2.627693
Au   1.278096  -0.000000  -4.805064
Au  -1.278096  -0.000000  -4.805064
Au  -1.278096   0.000000   4.805064
Au   1.278096   0.000000   4.805064
Au   4.803145  -0.000000   1.278045
Au  -4.803145  -0.000000   1.278045
Au  -4.803145  -0.000000  -1.278045
Au   4.803145  -0.000000  -1.278045
