20
-1550.95691200
Au   0.000000  -0.000000   3.634363
Au  -0.000000   0.000000  -3.634363
Au  -0.000000   1.894631   0.000000
Au  -0.000000  -1.894631   0.000000
Au   0.000000  -4.462523  -0.000000
Au   0.000000   4.462523  -0.000000
Au   6.152283   0.000000  -0.000000
Au  -6.152283   0.000000  -0.000000
Au   3.962445   0.000000   1.367387
Au  -3.962445   0.000000   1.367387
Au  -3.962445   0.000000  -1.367387
Au   3.962445   0.000000  -1.367387
Au   2.594678   0.000000  -3.577314
Au  -2.594678   0.000000  -3.577314
Au  -2.594678  -0.000000   3.577314
Au   2.594678   0.000000   3.577314
Au  -1.312442  -0.000000   1.320379
Au   1.312442  -0.000000   1.320379
Au   1.312442   0.000000  -1.320379
Au  -1.312442   0.000000  -1.320379
