20
-1551.61839100
Au  -0.000000   0.000000   4.498279
Au   0.000000  -0.000000  -4.498279
Au   0.000000  -3.863732  -0.000000
Au   0.000000   3.863732   0.000000
Au  -0.000000   1.276668   0.000000
Au   0.000000  -1.276668   0.000000
Au   2.681570  -0.000000   0.000000
Au  -2.681570   0.000000   0.000000
Au  -2.579624  -0.000000  -4.460616
Au   2.579624  -0.000000  -4.460616
Au   2.579624   0.000000   4.460616
Au  -2.579624  -0.000000   4.460616
Au  -1.288762  -0.000000  -2.171634
Au   1.288762  -0.000000  -2.171634
Au   1.288762   0.000000   2.171634
Au  -1.288762  -0.000000   2.171634
Au   3.944152   0.000000   2.266129
Au  -3.944152  -0.000000   2.266129
Au  -3.944152  -0.000000  -2.266129
Au   3.944152  -0.000000  -2.266129
