20
-1551.16115000
Au  -0.338936  -0.000000   1.270205
Au  -0.338936  -0.000000  -1.270205
Au   0.729572   2.318158   0.000000
Au   0.729572  -2.318158   0.000000
Au  -2.581886  -0.000000   0.000000
Au   1.928542   0.000000   0.000000
Au   4.608934   0.000000   0.000000
Au  -5.194815   0.000000   0.000000
Au  -1.834080   2.483071  -0.000000
Au   3.329225  -2.269060   0.000000
Au   3.329225   2.269061   0.000000
Au  -1.834080  -2.483071  -0.000000
Au   0.994828  -0.000000   3.506714
Au  -1.631711   0.000000   3.552797
Au  -1.631711   0.000000  -3.552797
Au   0.994828  -0.000000  -3.506714
Au   3.268429  -0.000000   2.227797
Au  -3.897714   0.000000   2.262476
Au  -3.897714   0.000000  -2.262476
Au   3.268429  -0.000000  -2.227797
