20
-1553.10322800
Au  -0.000000  -0.000000   2.266047
Au   0.000000  -0.000000  -2.266047
Au  -0.000000  -2.256413  -0.000000
Au   0.000000   2.256413   0.000000
Au   1.330365   0.000000   0.000000
Au  -1.330365  -0.000000   0.000000
Au   3.963068  -0.000000   0.000000
Au  -3.963068   0.000000   0.000000
Au  -2.619433  -2.248475  -0.000000
Au   2.619433   2.248475   0.000000
Au   2.619433  -2.248475  -0.000000
Au  -2.619433   2.248475  -0.000000
Au   2.674067   0.000000   2.279866
Au  -2.674067  -0.000000   2.279866
Au  -2.674067  -0.000000  -2.279866
Au   2.674067  -0.000000  -2.279866
Au   1.310048   0.000000   4.530964
Au  -1.310048  -0.000000   4.530964
Au  -1.310048  -0.000000  -4.530964
Au   1.310048   0.000000  -4.530964
