20
-1551.32952300
Au  -0.000000   3.911883  -0.000000
Au   0.000000  -3.911883  -0.000000
Au   0.000000   1.305456   0.000000
Au  -0.000000  -1.305456   0.000000
Au  -5.889464   0.000000  -0.000000
Au   5.889464  -0.000000   0.000000
Au  -3.283377  -0.000000   0.000000
Au   3.283377   0.000000   0.000000
Au   2.257641   2.566101  -0.000000
Au  -2.257641  -2.566101   0.000000
Au  -2.257641   2.566100  -0.000000
Au   2.257641  -2.566100  -0.000000
Au  -4.824540   2.355274  -0.000000
Au   4.824540  -2.355274   0.000000
Au   4.824540   2.355274   0.000000
Au  -4.824540  -2.355274  -0.000000
Au   1.362314  -0.000000   1.804993
Au  -1.362314   0.000000   1.804993
Au  -1.362314   0.000000  -1.804993
Au   1.362314  -0.000000  -1.804993
