20
-1548.88814400
Au   0.000000  -3.874395   0.000000
Au   0.000000   3.874395   0.000000
Au   0.000000   1.278623   0.000000
Au   0.000000  -1.278623   0.000000
Au  -5.428603  -0.000000   0.000000
Au   5.428603   0.000000   0.000000
Au   2.842130  -0.000000   0.000000
Au  -2.842130   0.000000   0.000000
Au   2.266765   2.560862   0.000000
Au  -2.266765  -2.560862   0.000000
Au  -2.266765   2.560862   0.000000
Au   2.266765  -2.560862   0.000000
Au   1.292179   0.000000   2.033816
Au  -1.292179  -0.000000   2.033816
Au  -1.292179  -0.000000  -2.033816
Au   1.292179   0.000000  -2.033816
Au   1.298256   0.000000   4.602343
Au  -1.298256  -0.000000   4.602343
Au  -1.298256  -0.000000  -4.602343
Au   1.298256   0.000000  -4.602343
