20
-1546.84372000
Au  -0.200655   4.720969  -0.000025
Au  -0.200632  -4.720891  -0.000025
Au   0.375648  -2.226891  -0.000117
Au   0.375148   2.226855  -0.000117
Au   6.152302  -0.000010  -0.000073
Au  -5.497898   0.000155  -0.000018
Au  -0.973637  -0.000200  -0.000285
Au   1.674800   0.000130   0.000191
Au  -3.220264   1.308576   0.000012
Au   4.666742  -2.131662  -0.000006
Au   4.666714   2.131622  -0.000006
Au  -3.220456  -1.308625   0.000012
Au   3.922353  -0.000029   1.341288
Au  -3.998490   0.000024   2.129207
Au  -3.998419   0.000024  -2.129204
Au   3.922213  -0.000029  -1.341222
Au  -3.870224   0.000001  -4.684281
Au   1.647318  -0.000010  -2.569681
Au   1.647643  -0.000010   2.570072
Au  -3.870208   0.000001   4.684278
