20
-1549.65438100
Au  -0.000000  -3.861605   0.000000
Au  -0.000000   3.861605  -0.000000
Au   0.000000   1.274754   0.000000
Au   0.000000  -1.274754  -0.000000
Au   5.175739   0.000000   0.000000
Au  -5.175739   0.000000  -0.000000
Au   2.561292  -0.000000   0.000000
Au  -2.561292  -0.000000   0.000000
Au   1.279629   0.000000   2.216679
Au  -1.279629  -0.000000   2.216679
Au  -1.279629   0.000000  -2.216679
Au   1.279629  -0.000000  -2.216679
Au  -3.896400   0.000000  -2.261767
Au   3.896400   0.000000  -2.261767
Au   3.896400   0.000000   2.261767
Au  -3.896400   0.000000   2.261767
Au  -1.289768  -0.000000   4.786428
Au   1.289768  -0.000000   4.786428
Au   1.289768  -0.000000  -4.786428
Au  -1.289768  -0.000000  -4.786428
