20
-1550.26043500
Au  -0.000000  -0.000000   4.584661
Au   0.000000  -0.000000  -4.584661
Au   0.000000   0.000000  -2.007024
Au   0.000000  -0.000000   2.007024
Au  -0.000000  -1.710907   0.000000
Au   0.000000   1.710907  -0.000000
Au   1.890875  -0.000000  -0.000000
Au  -1.890875   0.000000   0.000000
Au  -4.090169   1.321197   0.000000
Au   4.090169  -1.321197   0.000000
Au   4.090169   1.321197   0.000000
Au  -4.090169  -1.321197   0.000000
Au   2.180705  -3.138328  -0.000000
Au  -2.180705   3.138328  -0.000000
Au  -2.180705  -3.138328   0.000000
Au   2.180705   3.138328  -0.000000
Au   0.000000   3.956360  -1.301587
Au   0.000000  -3.956360  -1.301587
Au  -0.000000   3.956360   1.301587
Au   0.000000  -3.956360   1.301587
