20
-1551.82776800
Au   0.000000   0.000000   1.841082
Au  -0.000000  -0.000000  -1.841082
Au  -0.000000   0.000000  -4.452677
Au   0.000000  -0.000000   4.452677
Au   0.000000   1.886906  -0.000000
Au  -0.000000  -1.886906   0.000000
Au   1.872144  -0.000000  -0.000000
Au  -1.872144  -0.000000   0.000000
Au   0.000000  -4.762770  -3.817123
Au   0.000000   4.762770  -3.817123
Au   0.000000  -4.762770   3.817123
Au  -0.000000   4.762770   3.817123
Au   0.000000  -2.262196   3.175284
Au   0.000000   2.262196   3.175284
Au  -0.000000  -2.262196  -3.175284
Au  -0.000000   2.262196  -3.175284
Au  -0.000000  -4.166957  -1.297618
Au  -0.000000   4.166957  -1.297618
Au   0.000000  -4.166957   1.297618
Au   0.000000   4.166957   1.297618
