20
-1552.03286300
Au  -0.000000   0.000000  -3.841175
Au   0.000000   0.000000   3.841175
Au   0.000000  -0.000000   1.262825
Au  -0.000000  -0.000000  -1.262825
Au   2.566632  -0.000000  -0.000000
Au  -2.566632  -0.000000  -0.000000
Au  -5.205479  -0.000000   0.000000
Au   5.205479   0.000000  -0.000000
Au  -1.287175  -2.266701   0.000000
Au   1.287175   2.266701   0.000000
Au   1.287175  -2.266701  -0.000000
Au  -1.287175   2.266701   0.000000
Au   3.906326  -2.253144  -0.000000
Au  -3.906326   2.253144   0.000000
Au  -3.906326  -2.253144   0.000000
Au   3.906326   2.253144  -0.000000
Au  -0.000000   2.316991  -2.392450
Au   0.000000  -2.316991  -2.392450
Au  -0.000000   2.316991   2.392450
Au   0.000000  -2.316991   2.392450
