20
-1547.89842800
Au  -0.000000  -0.000000   4.448368
Au  -0.000000  -0.000000  -4.448368
Au  -0.000000   0.000000  -1.882906
Au   0.000000   0.000000   1.882906
Au  -1.846765   0.000000  -0.000000
Au   1.846765   0.000000  -0.000000
Au   0.000000  -1.846765  -0.000000
Au   0.000000   1.846765   0.000000
Au   4.405691   0.000000   0.000000
Au  -4.405691  -0.000000   0.000000
Au   0.000000   4.405691  -0.000000
Au  -0.000000  -4.405691  -0.000000
Au  -2.560820  -4.380107   0.000000
Au   2.560820   4.380107   0.000000
Au   4.380107  -2.560820  -0.000000
Au  -4.380107   2.560820  -0.000000
Au   2.560820  -4.380107   0.000000
Au  -2.560820   4.380107   0.000000
Au  -4.380107  -2.560820  -0.000000
Au   4.380107   2.560820  -0.000000
