20
-1552.03286000
Au   0.000000  -0.000000  -5.205457
Au  -0.000000   0.000000   5.205457
Au  -0.000000  -0.000000   2.566311
Au  -0.000000   0.000000  -2.566311
Au  -3.841280  -0.000000   0.000000
Au   3.841280   0.000000  -0.000000
Au  -1.262781   0.000000  -0.000000
Au   1.262781   0.000000   0.000000
Au  -2.392641  -2.316962   0.000000
Au   2.392641   2.316962  -0.000000
Au   2.392641  -2.316962   0.000000
Au  -2.392641   2.316962  -0.000000
Au   0.000000  -2.266972  -1.287148
Au  -0.000000   2.266972  -1.287148
Au   0.000000  -2.266972   1.287148
Au  -0.000000   2.266972   1.287148
Au   0.000000  -2.252794  -3.905942
Au   0.000000   2.252794  -3.905942
Au   0.000000  -2.252794   3.905942
Au   0.000000   2.252794   3.905942
