20
-1551.33592700
Au  -0.000000  -0.000000   3.893338
Au  -0.000000  -0.000000  -3.893338
Au   0.000000   0.000000   1.282907
Au   0.000000  -0.000000  -1.282907
Au  -4.849820   0.000000  -0.000000
Au   4.849820   0.000000   0.000000
Au   2.286443  -0.000000  -0.000000
Au  -2.286443  -0.000000  -0.000000
Au   1.276420   2.425274  -0.000000
Au  -1.276420  -2.425274   0.000000
Au  -1.276420   2.425274   0.000000
Au   1.276420  -2.425274   0.000000
Au  -0.000000   2.258127  -2.543375
Au  -0.000000  -2.258127  -2.543375
Au  -0.000000   2.258127   2.543375
Au  -0.000000  -2.258127   2.543375
Au   0.000000  -4.501085   1.283796
Au   0.000000   4.501085   1.283796
Au   0.000000  -4.501085  -1.283796
Au  -0.000000   4.501085  -1.283796
