20
-1551.65404000
Au   0.000000   0.000000   3.146341
Au  -0.000000   0.000000  -3.146341
Au  -0.000000   4.090228   0.000000
Au   0.000000  -4.090227   0.000000
Au   3.923213  -0.000000   0.000000
Au  -3.923213  -0.000000   0.000000
Au  -1.318612   0.000000   0.000000
Au   1.318612   0.000000   0.000000
Au   2.194901   2.536376   0.000000
Au  -2.194901  -2.536375   0.000000
Au  -2.194901   2.536376   0.000000
Au   2.194901  -2.536375   0.000000
Au  -4.797963  -2.440919   0.000000
Au   4.797962   2.440919   0.000000
Au   4.797963  -2.440920   0.000000
Au  -4.797962   2.440919   0.000000
Au   0.000000  -1.863371  -1.346303
Au  -0.000000   1.863371  -1.346303
Au   0.000000  -1.863371   1.346303
Au  -0.000000   1.863371   1.346303
