20
-1550.37212000
Au  -0.000000   0.000000   2.301458
Au  -0.000000   0.000000  -2.301458
Au  -0.000000   2.370217  -0.000000
Au   0.000000  -2.370217   0.000000
Au  -3.913346   0.000000   0.000000
Au   3.913346   0.000000   0.000000
Au   1.305819   0.000000   0.000000
Au  -1.305819   0.000000   0.000000
Au  -2.641228   2.266890  -0.000000
Au   2.641228  -2.266890   0.000000
Au   2.641228   2.266890  -0.000000
Au  -2.641228  -2.266890   0.000000
Au  -0.000000  -4.811951   1.290879
Au   0.000000   4.811951   1.290879
Au   0.000000  -4.811951  -1.290879
Au   0.000000   4.811951  -1.290879
Au  -0.000000   2.580873  -2.587559
Au  -0.000000  -2.580873  -2.587559
Au  -0.000000   2.580873   2.587559
Au   0.000000  -2.580873   2.587559
