20
-1551.84833900
Au   0.000000   0.000000  -3.061362
Au   0.000000   0.000000   3.061362
Au  -0.000000   4.168468   0.000000
Au  -0.000000  -4.168468   0.000000
Au  -1.284727   0.000000  -0.000000
Au   1.284727   0.000000  -0.000000
Au  -3.852893  -0.000000   0.000000
Au   3.852893  -0.000000   0.000000
Au  -2.226698  -2.463719   0.000000
Au   2.226698   2.463719   0.000000
Au   2.226698  -2.463719   0.000000
Au  -2.226698   2.463719   0.000000
Au  -0.000000  -1.956131  -1.353452
Au   0.000000   1.956131  -1.353452
Au  -0.000000  -1.956131   1.353452
Au   0.000000   1.956131   1.353452
Au   0.000000   2.448033  -3.922201
Au   0.000000  -2.448033  -3.922201
Au  -0.000000   2.448033   3.922201
Au   0.000000  -2.448033   3.922201
