20
-1551.01022000
Au  -0.000000  -5.056748  -0.000000
Au   0.000000   5.056748  -0.000000
Au   0.000000   2.447009  -0.000000
Au   0.000000  -2.447009  -0.000000
Au  -1.274987  -0.000000   0.000001
Au   1.274987  -0.000000   0.000001
Au   3.878295  -0.000000  -0.000000
Au  -3.878295  -0.000000  -0.000000
Au  -2.613566   2.277115  -0.000000
Au   2.613566  -2.277115  -0.000000
Au   2.613566   2.277115  -0.000000
Au  -2.613566  -2.277115  -0.000000
Au   0.000000  -1.283130   2.296989
Au  -0.000000   1.283130   2.296989
Au   0.000000  -1.283130  -2.296990
Au   0.000000   1.283130  -2.296990
Au  -0.000000   3.880950   2.300457
Au   0.000000  -3.880950   2.300457
Au  -0.000000   3.880950  -2.300457
Au  -0.000000  -3.880950  -2.300457
