20
-1548.46514900
Au  -0.000000   3.936013   0.000000
Au  -0.000000  -3.936013   0.000000
Au   0.000000  -1.323393   0.000000
Au   0.000000   1.323393   0.000000
Au   2.233448  -0.000000  -0.000000
Au  -2.233448   0.000000  -0.000000
Au   4.792058  -0.000000  -0.000000
Au  -4.792058  -0.000000  -0.000000
Au  -0.000000   2.653961   2.226802
Au  -0.000000  -2.653961   2.226802
Au   0.000000   2.653961  -2.226802
Au   0.000000  -2.653961  -2.226802
Au  -0.000000  -3.883983   4.490368
Au  -0.000000   3.883983   4.490368
Au   0.000000  -3.883983  -4.490368
Au   0.000000   3.883983  -4.490368
Au  -0.000000  -1.289857   4.434038
Au  -0.000000   1.289857   4.434038
Au   0.000000  -1.289857  -4.434038
Au   0.000000   1.289857  -4.434038
