20
-1548.13937000
Au   0.000000   3.893507   0.000000
Au   0.000000  -3.893507  -0.000000
Au  -0.000000  -1.293719  -0.000000
Au   0.000000   1.293719   0.000000
Au  -2.250608  -0.000000  -0.000000
Au   2.250608  -0.000000  -0.000000
Au   4.810100  -0.000000  -0.000000
Au  -4.810100  -0.000000   0.000000
Au   0.000000  -3.866793  -2.582038
Au   0.000000   3.866793  -2.582038
Au  -0.000000  -3.866793   2.582038
Au   0.000000   3.866793   2.582038
Au   0.000000  -2.570991   4.828684
Au   0.000000   2.570991   4.828684
Au   0.000000  -2.570991  -4.828684
Au   0.000000   2.570991  -4.828684
Au   0.000000  -1.287375   2.589952
Au   0.000000   1.287375   2.589952
Au  -0.000000  -1.287375  -2.589952
Au  -0.000000   1.287375  -2.589952
