20
-1549.89152300
Au  -0.000000  -0.000000   3.936131
Au  -0.000000  -0.000000  -3.936131
Au  -0.000000  -0.000000   1.289782
Au  -0.000000  -0.000000  -1.289782
Au   0.000000  -2.384190  -0.000000
Au   0.000000   2.384190  -0.000000
Au  -2.364520  -0.000000   0.000000
Au   2.364520   0.000000  -0.000000
Au   2.578607   2.609643   0.000000
Au  -2.578607  -2.609643   0.000000
Au  -2.578607   2.609643  -0.000000
Au   2.578607  -2.609643   0.000000
Au  -2.259468  -0.000000  -2.652022
Au   2.259468   0.000000  -2.652022
Au   2.259468   0.000000   2.652022
Au  -2.259468  -0.000000   2.652022
Au   0.000000   2.254987  -2.613244
Au   0.000000  -2.254987  -2.613244
Au   0.000000   2.254987   2.613244
Au   0.000000  -2.254987   2.613244
