20
-1549.48015500
Au   0.000000  -0.000000  -3.201795
Au   0.000000  -0.000000   3.201795
Au   0.000000  -0.000000   5.775739
Au   0.000000  -0.000000  -5.775739
Au   0.000000  -4.039969   0.000000
Au   0.000000   4.039969   0.000000
Au   1.294323  -0.000000  -0.000000
Au  -1.294323  -0.000000   0.000000
Au   2.206114  -2.445645  -0.000000
Au  -2.206114   2.445645  -0.000000
Au  -2.206114  -2.445645   0.000000
Au   2.206114   2.445645   0.000000
Au  -3.533204   0.000000  -1.303327
Au   3.533204  -0.000000  -1.303327
Au   3.533204   0.000000   1.303327
Au  -3.533204  -0.000000   1.303327
Au  -0.000000  -1.846230  -1.370503
Au  -0.000000   1.846230  -1.370503
Au   0.000000  -1.846230   1.370503
Au   0.000000   1.846230   1.370503
