20
-1550.89259700
Au   0.000002  -0.000002  -1.285817
Au   0.000002  -0.000002   1.285817
Au  -0.000001   0.000001   3.884308
Au  -0.000001   0.000001  -3.884308
Au   2.410445   0.049727   0.000000
Au  -2.410448  -0.049726   0.000000
Au   0.051938   2.411022   0.000000
Au  -0.051940  -2.411019   0.000000
Au  -2.636526  -2.634308   0.000000
Au   2.636529   2.634306   0.000000
Au   2.534415  -2.536996   0.000000
Au  -2.534414   2.536997   0.000000
Au  -2.269560  -0.414815   2.609207
Au   2.269560   0.414815   2.609208
Au  -0.418204  -2.268871   2.609014
Au   0.418204   2.268871   2.609014
Au   2.269560   0.414815  -2.609208
Au  -2.269560  -0.414815  -2.609207
Au  -0.418204  -2.268871  -2.609014
Au   0.418204   2.268871  -2.609014
