20
-1550.74040900
Au   0.000000  -0.000000   2.459585
Au  -0.000000  -0.000000  -2.459585
Au   0.000000   0.000000   5.049055
Au  -0.000000  -0.000000  -5.049055
Au  -3.864063   0.000000   0.000000
Au   3.864063   0.000000  -0.000000
Au  -1.263522   0.000000   0.000000
Au   1.263522   0.000000  -0.000000
Au   2.375612   2.310800  -0.000000
Au  -2.375612  -2.310800   0.000000
Au  -2.375612   2.310800   0.000000
Au   2.375612  -2.310800  -0.000000
Au   2.606151   0.000000   2.267513
Au  -2.606151   0.000000   2.267513
Au  -2.606151  -0.000000  -2.267513
Au   2.606151  -0.000000  -2.267513
Au  -0.000000  -2.305753  -1.287842
Au  -0.000000   2.305753  -1.287842
Au   0.000000  -2.305753   1.287842
Au   0.000000   2.305753   1.287842
