20
-1548.57950500
Au   0.000000  -0.000000   5.453879
Au  -0.000000   0.000000  -5.453879
Au   0.000000   0.000000  -1.288086
Au  -0.000000  -0.000000   1.288086
Au   2.282963  -0.000000   0.000000
Au  -2.282963  -0.000000  -0.000000
Au   4.860300  -0.000000   0.000000
Au  -4.860300  -0.000000  -0.000000
Au   1.583533  -0.000000   3.349940
Au  -1.583533  -0.000000   3.349940
Au  -1.583533  -0.000000  -3.349940
Au   1.583533  -0.000000  -3.349940
Au  -0.000000  -2.025155  -3.818907
Au  -0.000000   2.025155  -3.818907
Au  -0.000000  -2.025155   3.818907
Au   0.000000   2.025155   3.818907
Au  -0.000000   2.555257   1.288091
Au   0.000000  -2.555257   1.288091
Au   0.000000   2.555257  -1.288091
Au   0.000000  -2.555257  -1.288091
