20
-1548.34333900
Au  -0.000000   0.000000  -1.288142
Au  -0.000000   0.000000   1.288142
Au  -0.000000   0.000000   3.914977
Au  -0.000000   0.000000  -3.914977
Au   2.254594   0.000000   0.000000
Au  -2.254594   0.000000   0.000000
Au  -4.815940  -0.000000  -0.000000
Au   4.815940  -0.000000   0.000000
Au   2.271742  -0.000000   2.583772
Au  -2.271742  -0.000000   2.583772
Au  -2.271742  -0.000000  -2.583772
Au   2.271742  -0.000000  -2.583772
Au  -0.000000   2.569735   3.870701
Au  -0.000000  -2.569735   3.870701
Au  -0.000000   2.569735  -3.870701
Au  -0.000000  -2.569735  -3.870701
Au  -0.000000  -2.763640  -1.293072
Au  -0.000000   2.763640  -1.293072
Au  -0.000000  -2.763640   1.293072
Au  -0.000000   2.763640   1.293072
