20
-1550.77866100
Au  -0.000000   0.000000  -1.277084
Au  -0.000000  -0.000000   1.277084
Au   0.000000   2.277308   0.000000
Au  -0.000000  -2.277308  -0.000000
Au   0.000000   4.867450   0.000000
Au  -0.000000  -4.867450  -0.000000
Au   2.238324   0.000000   0.000000
Au  -2.238324  -0.000000  -0.000000
Au  -3.540161   0.000000  -2.229115
Au   3.540161   0.000000  -2.229115
Au   3.540161   0.000000   2.229115
Au  -3.540161  -0.000000   2.229115
Au  -1.298396   0.000000  -3.542567
Au   1.298396  -0.000000  -3.542567
Au   1.298396  -0.000000   3.542567
Au  -1.298396  -0.000000   3.542567
Au  -0.000000  -2.189758  -2.710439
Au   0.000000   2.189758  -2.710439
Au  -0.000000  -2.189758   2.710439
Au  -0.000000   2.189758   2.710439
