20
-1551.25804500
Au   0.000000   0.000000  -4.284571
Au   0.000000   0.000000   4.284571
Au  -0.000000   2.980900  -0.000000
Au  -0.000000  -2.980900  -0.000000
Au  -1.264218  -0.000000  -0.000000
Au   1.264152  -0.000000  -0.000000
Au   3.836537  -0.000000   0.000000
Au  -3.836483  -0.000000  -0.000000
Au   2.522573  -2.280377  -0.000000
Au  -2.522572   2.280366   0.000000
Au  -2.522572  -2.280366   0.000000
Au   2.522573   2.280377  -0.000000
Au  -2.343576   0.000000  -2.363645
Au   2.343580   0.000000  -2.363656
Au   2.343580   0.000000   2.363656
Au  -2.343576   0.000000   2.363645
Au   0.000000  -1.303793  -2.012227
Au   0.000000   1.303793  -2.012227
Au   0.000000  -1.303793   2.012227
Au   0.000000   1.303793   2.012227
