20
-1550.10255200
Au  -0.000000  -0.000000  -2.254577
Au   0.000000  -0.000000   2.254577
Au  -0.000000   3.152421  -0.000000
Au   0.000000  -3.152421  -0.000000
Au   1.284260  -0.000000  -0.000000
Au  -1.284260  -0.000000  -0.000000
Au   3.899017  -0.000000  -0.000000
Au  -3.899017  -0.000000   0.000000
Au  -1.297805  -0.000000  -4.508545
Au   1.297805   0.000000  -4.508545
Au   1.297805   0.000000   4.508545
Au  -1.297805   0.000000   4.508545
Au   2.660500  -0.000000  -2.281621
Au  -2.660500   0.000000  -2.281621
Au  -2.660500  -0.000000   2.281621
Au   2.660500  -0.000000   2.281621
Au  -0.000000  -2.565428   2.505798
Au  -0.000000   2.565428   2.505798
Au  -0.000000  -2.565428  -2.505798
Au  -0.000000   2.565428  -2.505798
