20
-1550.98001800
Au  -0.000000  -0.000000  -1.276735
Au  -0.000000   0.000000   1.276735
Au  -0.000000   4.887346  -0.000000
Au  -0.000000  -4.887346  -0.000000
Au   2.274157  -0.000000   0.000000
Au  -2.274157   0.000000   0.000000
Au   4.836468  -0.000000  -0.000000
Au  -4.836468   0.000000  -0.000000
Au  -2.188790   0.000000  -2.633449
Au   2.188790  -0.000000  -2.633449
Au   2.188790  -0.000000   2.633449
Au  -2.188790  -0.000000   2.633449
Au  -0.000000   2.652725  -1.319170
Au  -0.000000  -2.652725  -1.319170
Au  -0.000000   2.652725   1.319170
Au  -0.000000  -2.652725   1.319170
Au   0.000000   1.299471   3.558381
Au   0.000000  -1.299471   3.558381
Au  -0.000000   1.299471  -3.558381
Au  -0.000000  -1.299471  -3.558381
