20
-1543.72135000
Au  -0.000000   4.807483   0.000000
Au   0.000000  -4.824352   0.000000
Au   0.000000  -2.219415   0.000000
Au  -0.000000   2.222279   0.000000
Au  -1.273158   0.002808   0.000000
Au   1.273158   0.002808   0.000000
Au  -3.850468   0.001322   0.000000
Au   3.850468   0.001322   0.000000
Au  -2.260487   3.463515   0.000000
Au   2.260483  -3.460849   0.000000
Au   2.260487   3.463515   0.000000
Au  -2.260483  -3.460849   0.000000
Au   1.281554   0.000418  -2.556497
Au  -1.281554   0.000418  -2.556497
Au  -1.281554   0.000418   2.556497
Au   1.281554   0.000418   2.556497
Au   0.000000  -7.075422  -1.335093
Au  -0.000000   7.074792  -1.279878
Au   0.000000  -7.075422   1.335093
Au  -0.000000   7.074792   1.279878
