20
-1547.97916600
Au   0.000000  -2.346454   0.000000
Au  -0.000000   2.346454  -0.000000
Au   0.000000   4.938786  -0.000000
Au  -0.000000  -4.938786  -0.000000
Au   3.896402   0.000000   0.000000
Au  -3.896402  -0.000000  -0.000000
Au   1.299330   0.000000   0.000000
Au  -1.299330   0.000000  -0.000000
Au  -2.634135   2.273068  -0.000000
Au   2.634135  -2.273068   0.000000
Au   2.634135   2.273068   0.000000
Au  -2.634135  -2.273068  -0.000000
Au   1.360636   0.000000   2.607026
Au  -1.360636   0.000000   2.607026
Au  -1.360636  -0.000000  -2.607026
Au   1.360636  -0.000000  -2.607026
Au   0.000000  -2.226452   2.579455
Au   0.000000   2.226452   2.579455
Au  -0.000000  -2.226452  -2.579455
Au  -0.000000   2.226452  -2.579455
