20
-1551.11534400
Au   0.000053   0.000043  -3.900226
Au  -0.000076  -0.000046   3.900301
Au  -0.000063   0.000034  -1.291837
Au   0.000032   0.000023   1.291856
Au  -1.492773  -1.714228  -0.000064
Au   1.492751   1.714186   0.000118
Au   2.073342  -0.932650   0.000102
Au  -2.073318   0.932642  -0.000036
Au   2.623156   4.022379  -0.000262
Au  -2.623135  -4.022359   0.000144
Au  -4.068095   2.553667  -0.000036
Au   4.068090  -2.553672  -0.000232
Au  -2.116576   0.881413   2.624286
Au   2.116512  -0.881464   2.624303
Au  -1.555267  -1.684774   2.624002
Au   1.555210   1.684741   2.624037
Au   2.116584  -0.881423  -2.624246
Au  -2.116511   0.881457  -2.624257
Au  -1.555213  -1.684731  -2.624011
Au   1.555297   1.684761  -2.623941
