20
-1551.33592700
Au  -0.000000   1.282809   0.000000
Au  -0.000000  -1.282809  -0.000000
Au  -0.000000   3.892662  -0.000000
Au   0.000000  -3.892662  -0.000000
Au   4.849139   0.000000   0.000000
Au  -4.849139  -0.000000  -0.000000
Au   2.285781  -0.000000   0.000000
Au  -2.285781   0.000000   0.000000
Au  -1.276479  -0.000000   2.426194
Au   1.276479   0.000000   2.426194
Au   1.276479   0.000000  -2.426194
Au  -1.276479  -0.000000  -2.426194
Au  -0.000000   2.542317   2.258453
Au  -0.000000  -2.542317   2.258453
Au   0.000000   2.542317  -2.258453
Au   0.000000  -2.542317  -2.258453
Au   0.000000   1.283849   4.502166
Au  -0.000000  -1.283849   4.502166
Au  -0.000000   1.283849  -4.502166
Au   0.000000  -1.283849  -4.502166
