20
-1551.69919800
Au   0.000010  -0.000000  -4.657713
Au  -0.000012  -0.000000   4.657681
Au   0.000008  -0.000000  -2.040048
Au  -0.000043  -0.000000   2.040043
Au  -0.000022  -1.904386  -0.000020
Au  -0.000021   1.904386  -0.000020
Au   1.800408   0.000000   0.000040
Au  -1.800394  -0.000000   0.000035
Au  -2.539484   2.584867  -0.000030
Au   2.539483  -2.584873   0.000017
Au   2.539483   2.584873   0.000017
Au  -2.539484  -2.584867  -0.000030
Au   2.237380  -1.328414  -2.258746
Au  -2.237370   1.328429  -2.258710
Au  -2.237426  -1.328413   2.258746
Au   2.237448   1.328444   2.258724
Au  -2.237426   1.328413   2.258746
Au   2.237448  -1.328444   2.258724
Au   2.237380   1.328414  -2.258746
Au  -2.237370  -1.328429  -2.258710
