20
-1551.12703100
Au  -0.000000  -0.000000  -4.926264
Au   0.000000   0.000000   4.926264
Au   0.000000   0.000000   2.315312
Au  -0.000000   0.000000  -2.315312
Au   1.270842   0.000000   0.000000
Au  -1.270842  -0.000000  -0.000000
Au   3.828584  -0.000000  -0.000000
Au  -3.828584   0.000000   0.000000
Au  -3.408388   2.547737   0.000000
Au   3.408388  -2.547737  -0.000000
Au   3.408388   2.547737  -0.000000
Au  -3.408388  -2.547737   0.000000
Au  -2.359954   1.302145   2.027254
Au   2.359954  -1.302145   2.027254
Au   2.359954   1.302145  -2.027254
Au  -2.359954  -1.302145  -2.027254
Au   2.359954  -1.302145  -2.027254
Au  -2.359954   1.302145  -2.027254
Au  -2.359954  -1.302145   2.027254
Au   2.359954   1.302145   2.027254
