20
-1550.96651500
Au  -0.000000  -0.000000   2.317438
Au   0.000000   0.000000  -2.317438
Au  -0.000000  -3.893978   0.000000
Au   0.000000   3.893978   0.000000
Au  -0.000000   1.308177  -0.000000
Au  -0.000000  -1.308177  -0.000000
Au  -2.265961  -0.000000  -0.000000
Au   2.265961  -0.000000  -0.000000
Au   2.348760  -2.660514   0.000000
Au  -2.348760   2.660514   0.000000
Au  -2.348760  -2.660514   0.000000
Au   2.348760   2.660514   0.000000
Au   1.728016  -1.907689   2.377187
Au  -1.728016   1.907689   2.377187
Au  -1.728016  -1.907689  -2.377187
Au   1.728016   1.907689  -2.377187
Au  -1.728016   1.907689  -2.377187
Au   1.728016  -1.907689  -2.377187
Au   1.728016   1.907689   2.377187
Au  -1.728016  -1.907689   2.377187
