20
-1553.70001400
Au   0.000000   0.000021   3.533392
Au  -0.000000  -0.000021  -3.533392
Au  -0.000000  -2.412650   0.000005
Au   0.000000   2.412650  -0.000005
Au   1.318161   0.000000   0.000000
Au  -1.318161   0.000000   0.000000
Au   3.957616   0.000000   0.000000
Au  -3.957616   0.000000   0.000000
Au   2.684824  -2.272167   0.000007
Au  -2.684824   2.272167  -0.000007
Au  -2.684824  -2.272167   0.000007
Au   2.684824   2.272167  -0.000007
Au  -1.326997   1.793585  -2.187066
Au   1.326983  -1.793573  -2.187084
Au   1.326983   1.793573   2.187084
Au  -1.326997  -1.793586   2.187066
Au   1.326997  -1.793586   2.187066
Au  -1.326983   1.793573   2.187084
Au  -1.326983  -1.793573  -2.187084
Au   1.326997   1.793585  -2.187066
