20
-1553.70001300
Au  -0.000000   0.000007   3.533363
Au  -0.000000   0.000001  -3.533363
Au   0.000000  -2.412959   0.000001
Au   0.000000   2.412960  -0.000001
Au   3.957588   0.000000   0.000000
Au  -3.957588   0.000000   0.000000
Au  -1.318110  -0.000000   0.000000
Au   1.318110  -0.000000   0.000000
Au  -2.684821  -2.272285   0.000001
Au   2.684823   2.272285  -0.000001
Au   2.684821  -2.272285   0.000001
Au  -2.684823   2.272285  -0.000001
Au   1.326822  -1.793806   2.187103
Au  -1.326817   1.793802   2.187109
Au  -1.326820  -1.793804  -2.187106
Au   1.326819   1.793804  -2.187106
Au  -1.326819   1.793804  -2.187106
Au   1.326820  -1.793804  -2.187106
Au   1.326817   1.793802   2.187109
Au  -1.326822  -1.793806   2.187103
