20
-1551.55123000
Au   0.000000  -0.000000   1.291207
Au   0.000000  -0.000000  -1.291207
Au  -0.000000   4.646955   0.000000
Au   0.000000  -4.646971   0.000000
Au   2.281281  -0.000043   0.000000
Au  -2.281281  -0.000044  -0.000000
Au  -4.936601  -0.000002  -0.000000
Au   4.936601  -0.000002   0.000000
Au  -1.316954   2.400439   0.000000
Au   1.316977  -2.400404  -0.000000
Au   1.316954   2.400438  -0.000000
Au  -1.316978  -2.400403   0.000000
Au   3.587171   1.834036  -1.310499
Au  -3.587163  -1.834027  -1.310487
Au  -3.587171   1.834037   1.310499
Au   3.587163  -1.834027   1.310487
Au  -3.587163  -1.834027   1.310487
Au   3.587171   1.834036   1.310499
Au   3.587163  -1.834027  -1.310487
Au  -3.587171   1.834037  -1.310499
