20
-1551.55925600
Au  -0.000000   0.000000   1.925380
Au  -0.000000  -0.000000  -1.925380
Au  -3.623965   0.000000   0.000000
Au   3.623965   0.000000  -0.000000
Au  -3.571111   2.597818  -0.000000
Au   3.571111  -2.597818  -0.000000
Au   3.571111   2.597818  -0.000000
Au  -3.571111  -2.597818   0.000000
Au   1.293218  -3.921279  -0.000000
Au  -1.293218   3.921279  -0.000000
Au  -1.293218  -3.921279   0.000000
Au   1.293218   3.921279  -0.000000
Au   1.309214  -1.293390  -0.000000
Au  -1.309214   1.293390   0.000000
Au  -1.309214  -1.293390   0.000000
Au   1.309214   1.293390  -0.000000
Au  -3.597999   5.169773  -0.000000
Au   3.597999  -5.169773  -0.000000
Au   3.597999   5.169773   0.000000
Au  -3.597999  -5.169773  -0.000000
