20
-1550.58213900
Au  -0.000041   0.000037   1.982062
Au   0.000014  -0.000037  -1.982062
Au   0.000000  -0.000000   4.596101
Au  -0.000000   0.000000  -4.596101
Au   1.865520   0.000000  -0.000001
Au  -1.865518   0.000000   0.000001
Au  -0.000000   1.865519   0.000002
Au  -0.000000  -1.865519  -0.000002
Au  -2.605373  -2.605373   0.000003
Au   2.605372   2.605372  -0.000003
Au   2.605372  -2.605372   0.000024
Au  -2.605373   2.605373  -0.000024
Au  -1.801075  -1.801075   2.299860
Au   1.801077   1.801077   2.299862
Au   1.801099  -1.801099   2.299852
Au  -1.801053   1.801053   2.299871
Au   1.801060  -1.801060  -2.299870
Au  -1.801092   1.801092  -2.299852
Au  -1.801069  -1.801070  -2.299863
Au   1.801082   1.801082  -2.299860
