20
-1548.60855900
Au   0.000000  -0.000000   2.248341
Au   0.000000  -0.000000  -2.248341
Au   1.313784   0.000000  -0.000000
Au  -1.313784  -0.000000   0.000000
Au  -3.564615  -1.287760  -0.000000
Au   3.564615   1.287760  -0.000000
Au   3.564615  -1.287760  -0.000000
Au  -3.564615   1.287760  -0.000000
Au  -6.132832   1.299097   0.000000
Au   6.132832  -1.299097  -0.000000
Au   6.132832   1.299097  -0.000000
Au  -6.132832  -1.299097  -0.000000
Au   3.598112  -3.883402   0.000000
Au  -3.598112   3.883402  -0.000000
Au  -3.598112  -3.883402   0.000000
Au   3.598112   3.883402   0.000000
Au   1.314716  -2.625583   0.000000
Au  -1.314716   2.625583   0.000000
Au  -1.314716  -2.625583   0.000000
Au   1.314716   2.625583   0.000000
