20
-1551.98664200
Au   0.000000  -1.296524   0.000000
Au   0.000000   1.296524   0.000000
Au   0.000000  -3.902542  -0.000000
Au  -0.000000   3.902542   0.000000
Au  -2.330530   0.000000  -0.000000
Au   2.330530   0.000000   0.000000
Au  -4.925164  -0.000000  -0.000000
Au   4.925164   0.000000   0.000000
Au  -2.271387  -2.623837  -0.000000
Au   2.271387   2.623837   0.000000
Au   2.271387  -2.623837   0.000000
Au  -2.271387   2.623837  -0.000000
Au   1.373756   1.319014  -2.214574
Au  -1.373756  -1.319014  -2.214574
Au  -1.373756   1.319014   2.214574
Au   1.373756  -1.319014   2.214574
Au  -1.373756  -1.319014   2.214574
Au   1.373756   1.319014   2.214574
Au   1.373756  -1.319014  -2.214574
Au  -1.373756   1.319014  -2.214574
