20
-1551.98664300
Au   0.000000   2.331220  -0.000000
Au  -0.000000  -2.331220   0.000000
Au   0.000000   4.926284   0.000000
Au   0.000000  -4.926284  -0.000000
Au   1.296482   0.000000   0.000000
Au  -1.296482  -0.000000   0.000000
Au   3.902862   0.000000  -0.000000
Au  -3.902862  -0.000000  -0.000000
Au  -2.623878   2.271070  -0.000000
Au   2.623878  -2.271070   0.000000
Au   2.623878   2.271070  -0.000000
Au  -2.623878  -2.271070   0.000000
Au   1.318916  -1.373902   2.214541
Au  -1.318916   1.373902   2.214541
Au  -1.318916  -1.373902  -2.214541
Au   1.318916   1.373902  -2.214541
Au  -1.318916   1.373902  -2.214541
Au   1.318916  -1.373902  -2.214541
Au   1.318916   1.373902   2.214541
Au  -1.318916  -1.373902   2.214541
