20
-1548.80116900
Au   0.000000   0.000000   3.630384
Au   0.000000  -0.000000  -3.630384
Au   0.000000  -1.964014   0.000000
Au   0.000000   1.964014   0.000000
Au   0.000000  -4.558709   0.000000
Au   0.000000   4.558709   0.000000
Au  -3.641374  -0.000000   0.000000
Au   3.641374  -0.000000   0.000000
Au   1.304272   0.000000   1.325486
Au  -1.304272   0.000000   1.325486
Au  -1.304272  -0.000000  -1.325486
Au   1.304272  -0.000000  -1.325486
Au   2.802309   2.131918  -1.292723
Au  -2.802309  -2.131918  -1.292723
Au  -2.802309   2.131918   1.292723
Au   2.802309  -2.131918   1.292723
Au  -2.802309  -2.131918   1.292723
Au   2.802309   2.131918   1.292723
Au   2.802309  -2.131918  -1.292723
Au  -2.802309   2.131918  -1.292723
