20
-1551.74172500
Au   0.000000  -0.000000  -2.102026
Au   0.000000  -0.000000   2.102026
Au   0.000000   4.376170  -0.000000
Au   0.000000  -4.376170  -0.000000
Au   0.000000  -1.799851   0.000000
Au   0.000000   1.799851   0.000000
Au  -4.136660  -0.000000  -0.000000
Au   4.136660   0.000000  -0.000000
Au  -2.182611   0.000000  -3.558253
Au   2.182611   0.000000  -3.558253
Au   2.182611  -0.000000   3.558253
Au  -2.182611   0.000000   3.558253
Au   2.260880   1.318003   1.309377
Au  -2.260880  -1.318003   1.309377
Au  -2.260880   1.318003  -1.309377
Au   2.260880  -1.318003  -1.309377
Au  -2.260880  -1.318003  -1.309377
Au   2.260880   1.318003  -1.309377
Au   2.260880  -1.318003   1.309377
Au  -2.260880   1.318003   1.309377
