20
-1551.45957100
Au   0.000000   0.000000  -3.546329
Au   0.000000   0.000000   3.546329
Au  -3.545490   0.000000   0.000000
Au   3.545490   0.000000   0.000000
Au  -4.899324  -0.000000   2.192926
Au   4.899324   0.000000   2.192926
Au   4.899324   0.000000  -2.192926
Au  -4.899324  -0.000000  -2.192926
Au  -2.616068   0.000000   3.502679
Au   2.616068   0.000000   3.502679
Au   2.616068  -0.000000  -3.502679
Au  -2.616068   0.000000  -3.502679
Au   4.868317  -0.000000   4.774768
Au  -4.868317  -0.000000   4.774768
Au  -4.868317  -0.000000  -4.774768
Au   4.868317  -0.000000  -4.774768
Au  -1.284541   0.000000  -1.283365
Au   1.284541   0.000000  -1.283365
Au   1.284541   0.000000   1.283365
Au  -1.284541  -0.000000   1.283365
