20
-1549.26662600
Au  -3.679975  -0.000000   0.245574
Au   3.679975  -0.000000   0.245574
Au   0.000000  -3.679975   0.245574
Au   0.000000   3.679975   0.245574
Au   1.837093  -0.000000   2.107347
Au  -1.837093  -0.000000   2.107347
Au   0.000000   1.837093   2.107347
Au   0.000000  -1.837093   2.107347
Au  -3.495836  -0.000000  -2.315248
Au   3.495836  -0.000000  -2.315248
Au   0.000000  -3.495836  -2.315248
Au   0.000000   3.495836  -2.315248
Au  -4.344563  -0.000000   2.739077
Au   4.344563  -0.000000   2.739077
Au   0.000000  -4.344563   2.739077
Au   0.000000   4.344563   2.739077
Au   1.305400   1.305400  -2.776750
Au  -1.305400  -1.305400  -2.776750
Au  -1.305400   1.305400  -2.776750
Au   1.305400  -1.305400  -2.776750
