20
-1551.15090000
Au   0.000014   2.091223   0.000000
Au  -0.000014  -2.091223   0.000000
Au  -0.000000   4.714523   0.000000
Au   0.000000  -4.714523   0.000000
Au   2.097913   0.000023  -0.000000
Au  -2.097913  -0.000022  -0.000000
Au   4.947059   0.000000   0.000000
Au  -4.947059  -0.000001   0.000000
Au  -3.539931   0.000001  -2.172531
Au   3.539931  -0.000001  -2.172531
Au   3.539932  -0.000001   2.172531
Au  -3.539932   0.000001   2.172531
Au   1.304506  -1.325193   2.181952
Au  -1.304506   1.325193   2.181952
Au  -1.304499  -1.325179  -2.181965
Au   1.304499   1.325179  -2.181965
Au  -1.304506   1.325193  -2.181952
Au   1.304506  -1.325193  -2.181952
Au   1.304498   1.325180   2.181965
Au  -1.304498  -1.325180   2.181965
