20
-1553.26286700
Au  -0.026649   3.650497  -0.000015
Au   0.061445  -4.174959   0.000023
Au   0.002503   1.037461   0.000010
Au   0.039559  -1.557904   0.000001
Au   2.669890   1.091068  -0.000074
Au  -2.671015   1.109513   0.000059
Au  -5.276336   1.031076  -0.000280
Au   5.272136   0.952325   0.000256
Au   1.359292  -0.249999  -1.904677
Au  -1.368954  -0.284546  -1.867607
Au  -1.368997  -0.284658   1.867600
Au   1.359271  -0.249879   1.904680
Au  -1.343052  -2.898816   1.811473
Au   1.323858   2.380894   1.884578
Au   1.307841  -2.866081  -1.905191
Au  -1.314736   2.349104  -1.905080
Au   1.323606   2.380750  -1.884728
Au  -1.343198  -2.898760  -1.811328
Au  -1.314520   2.348924   1.905224
Au   1.308056  -2.866010   1.905074
