20
-1551.56092600
Au  -0.000000   1.906214  -0.000000
Au  -0.000000  -1.906214   0.000000
Au  -3.627431   0.000000   0.000000
Au   3.627431   0.000000   0.000000
Au  -1.312615  -0.000000  -1.294927
Au   1.312615  -0.000000  -1.294927
Au   1.312615   0.000000   1.294927
Au  -1.312615   0.000000   1.294927
Au  -3.596991  -0.000000   5.171351
Au   3.596991  -0.000000   5.171351
Au   3.596991   0.000000  -5.171351
Au  -3.596991  -0.000000  -5.171351
Au   3.573457   0.000000   2.599025
Au  -3.573457   0.000000   2.599025
Au  -3.573457  -0.000000  -2.599025
Au   3.573457  -0.000000  -2.599025
Au  -1.293415   0.000000   3.922574
Au   1.293415   0.000000   3.922574
Au   1.293415  -0.000000  -3.922574
Au  -1.293415  -0.000000  -3.922574
