20
-1550.79215800
Au   6.067147   0.000000  -0.000000
Au  -6.067147  -0.000000  -0.000000
Au  -3.510240  -0.000000   0.000000
Au   3.510240  -0.000000   0.000000
Au  -1.285800   0.000000   1.314713
Au   1.285800  -0.000000   1.314713
Au   1.285800  -0.000000  -1.314713
Au  -1.285800  -0.000000  -1.314713
Au   1.286375  -0.000000   3.904566
Au  -1.286375  -0.000000   3.904566
Au  -1.286375  -0.000000  -3.904566
Au   1.286375  -0.000000  -3.904566
Au   3.557845   0.000000  -2.591556
Au  -3.557845  -0.000000  -2.591556
Au  -3.557845   0.000000   2.591556
Au   3.557845  -0.000000   2.591556
Au   3.544195  -0.000000  -5.189601
Au  -3.544195   0.000000  -5.189601
Au  -3.544195  -0.000000   5.189601
Au   3.544195  -0.000000   5.189601
