20
-1552.21828000
Au   5.788451   0.000000   0.000000
Au  -5.788451  -0.000000  -0.000000
Au   1.286009   0.000000  -0.000000
Au  -1.286009   0.000000   0.000000
Au   1.294032  -0.000000   5.224191
Au  -1.294032  -0.000000   5.224191
Au  -1.294032  -0.000000  -5.224191
Au   1.294032  -0.000000  -5.224191
Au  -1.305499   0.000000  -2.610397
Au   1.305499   0.000000  -2.610397
Au   1.305499   0.000000   2.610397
Au  -1.305499  -0.000000   2.610397
Au   3.569453   0.000000   1.334040
Au  -3.569453  -0.000000   1.334040
Au  -3.569453  -0.000000  -1.334040
Au   3.569453   0.000000  -1.334040
Au  -3.558289   0.000000  -3.942807
Au   3.558289   0.000000  -3.942807
Au   3.558289   0.000000   3.942807
Au  -3.558289  -0.000000   3.942807
