20
-1550.65011500
Au  -3.844769  -0.000000  -0.000000
Au   3.844769   0.000000  -0.000000
Au  -1.271922   0.000000  -0.000000
Au   1.271922  -0.000000   0.000000
Au   2.522748  -0.000000   2.245250
Au  -2.522748   0.000000   2.245250
Au  -2.522748   0.000000  -2.245250
Au   2.522748  -0.000000  -2.245250
Au   1.295261  -0.000000  -4.536782
Au  -1.295261  -0.000000  -4.536782
Au  -1.295261   0.000000   4.536782
Au   1.295261   0.000000   4.536782
Au  -3.885808  -0.000000   4.485342
Au   3.885808   0.000000   4.485342
Au   3.885808  -0.000000  -4.485342
Au  -3.885808   0.000000  -4.485342
Au   5.166686   0.000000  -2.238208
Au  -5.166686  -0.000000  -2.238208
Au  -5.166686   0.000000   2.238208
Au   5.166686  -0.000000   2.238208
