20
-1553.03354900
Au   0.000000   0.000000   1.297453
Au   0.000000  -0.000000  -1.297453
Au  -0.000000   0.000000   3.858157
Au  -0.000000  -0.000000  -3.858157
Au   0.000000   2.270977  -0.000000
Au  -0.000000  -2.270977  -0.000000
Au   2.286519  -0.000000   0.000000
Au  -2.286519   0.000000  -0.000000
Au  -0.000000  -2.400486   2.626833
Au   0.000000   2.400486   2.626833
Au  -0.000000  -2.400486  -2.626833
Au   0.000000   2.400486  -2.626833
Au   2.304287   1.299663   2.282632
Au  -2.304287  -1.299663   2.282632
Au  -2.304287   1.299663  -2.282632
Au   2.304287  -1.299663  -2.282632
Au  -2.304287  -1.299663  -2.282632
Au   2.304287   1.299663  -2.282632
Au   2.304287  -1.299663   2.282632
Au  -2.304287   1.299663   2.282632
