20
-1551.06555100
Au   0.000000   0.000000  -1.294199
Au   0.000000   0.000000   1.294199
Au   0.000000   0.000000   3.890552
Au   0.000000   0.000000  -3.890552
Au  -2.355215   0.000000  -0.000000
Au   2.355215   0.000000   0.000000
Au  -4.960146   0.000000   0.000000
Au   4.960146   0.000000   0.000000
Au  -0.000000  -2.567144  -3.556003
Au  -0.000000   2.567144  -3.556003
Au  -0.000000  -2.567144   3.556003
Au  -0.000000   2.567144   3.556003
Au   1.976815   1.294912  -2.422093
Au  -1.976815  -1.294911  -2.422093
Au  -1.976815   1.294912   2.422093
Au   1.976815  -1.294911   2.422093
Au  -1.976815  -1.294911   2.422093
Au   1.976815   1.294912   2.422093
Au   1.976815  -1.294911  -2.422093
Au  -1.976815   1.294912  -2.422093
