20
-1551.68725900
Au  -0.000000   0.000000   1.625163
Au  -0.000000   0.000000  -1.625163
Au  -0.000000   2.061712   0.000000
Au   0.000000  -2.061712  -0.000000
Au  -0.000000  -5.871670  -0.000000
Au   0.000000   5.871670   0.000000
Au  -2.050465  -0.000000   0.000000
Au   2.050465  -0.000000  -0.000000
Au   0.000000  -2.343592   2.761576
Au  -0.000000   2.343592   2.761576
Au   0.000000  -2.343592  -2.761576
Au  -0.000000   2.343592  -2.761576
Au   1.330602  -4.027433   1.301689
Au  -1.330602   4.027433   1.301689
Au  -1.330602  -4.027433  -1.301689
Au   1.330602   4.027433  -1.301689
Au  -1.330602   4.027433  -1.301689
Au   1.330602  -4.027433  -1.301689
Au   1.330602   4.027433   1.301689
Au  -1.330602  -4.027433   1.301689
