20
-1551.56092300
Au  -0.000000  -0.000000   3.626956
Au   0.000000  -0.000000  -3.626956
Au   1.906265   0.000000   0.000000
Au  -1.906265   0.000000  -0.000000
Au  -0.000000  -2.598984  -3.573420
Au   0.000000   2.598984  -3.573420
Au  -0.000000  -2.598984   3.573420
Au  -0.000000   2.598984   3.573420
Au  -0.000000   5.171390  -3.597018
Au   0.000000  -5.171390  -3.597018
Au   0.000000   5.171390   3.597018
Au   0.000000  -5.171390   3.597018
Au  -0.000000  -3.922251   1.293397
Au   0.000000   3.922251   1.293397
Au   0.000000  -3.922251  -1.293397
Au   0.000000   3.922251  -1.293397
Au  -0.000000  -1.294993   1.312445
Au   0.000000   1.294993   1.312445
Au   0.000000  -1.294993  -1.312445
Au   0.000000   1.294993  -1.312445
