20
-1547.23265400
Au  -1.727108  -1.877307  -1.883121
Au   1.854730   1.845547  -1.844877
Au   1.824290  -1.865668   1.865728
Au  -1.729105   1.880536   1.877943
Au  -3.293240  -3.337375  -3.295901
Au   3.193004   3.385807  -3.390965
Au   3.210559  -3.384720   3.388441
Au  -3.290948   3.294006   3.341971
Au  -1.875733   0.000767  -0.001205
Au   1.935742  -0.010294   0.011138
Au   0.039742  -1.835491   0.005595
Au   0.050532   1.830929   0.000251
Au   0.050803   0.000951  -1.829293
Au   0.039018  -0.006370   1.834779
Au   4.502295   0.049361  -0.051710
Au  -4.454232   0.032130  -0.034869
Au  -0.065989   4.365645   0.275603
Au  -0.099428  -4.368082  -0.272996
Au  -0.098024   0.275599   4.367044
Au  -0.066909  -0.275972  -4.363557
