20
-1544.88972600
Au   1.837615   1.837615   1.837615
Au  -1.837615  -1.837615   1.837615
Au  -1.837615   1.837615  -1.837615
Au   1.837615  -1.837615  -1.837615
Au  -1.837700  -1.837700  -1.837700
Au   1.837700   1.837700  -1.837700
Au   1.837700  -1.837700   1.837700
Au  -1.837700   1.837700   1.837700
Au   1.964853  -0.000000  -0.000000
Au  -1.964853   0.000000  -0.000000
Au  -0.000000   1.964853   0.000000
Au   0.000000  -1.964853  -0.000000
Au   0.000000   0.000000   1.964853
Au   0.000000  -0.000000  -1.964853
Au  -4.671386   0.000000   0.000000
Au   4.671386  -0.000000   0.000000
Au   0.000000  -4.671386   0.000000
Au   0.000000   4.671386   0.000000
Au   0.000000  -0.000000  -4.671386
Au   0.000000   0.000000   4.671386
