20
-1544.93309800
Au  -1.886567  -1.886567  -1.886567
Au   1.886567   1.886567  -1.886567
Au   1.886567  -1.886567   1.886567
Au  -1.886567   1.886567   1.886567
Au   1.836569   1.836569   1.836569
Au  -1.836569  -1.836569   1.836569
Au  -1.836569   1.836569  -1.836569
Au   1.836569  -1.836569  -1.836569
Au   1.907297  -0.000000  -0.000000
Au  -1.907297   0.000000  -0.000000
Au   0.000000   1.907297  -0.000000
Au   0.000000  -1.907297   0.000000
Au   0.000000  -0.000000   1.907297
Au  -0.000000   0.000000  -1.907297
Au  -4.488751  -0.000000  -0.000000
Au   4.488751  -0.000000   0.000000
Au  -0.000000  -4.488751  -0.000000
Au  -0.000000   4.488751  -0.000000
Au  -0.000000  -0.000000  -4.488751
Au  -0.000000  -0.000000   4.488751
