20
-1555.92257700
Au  -0.000050   0.000004  -4.088119
Au   0.000050  -0.000003   4.088127
Au  -2.027538  -0.243439   0.000030
Au   1.717390  -2.443386  -0.000061
Au   1.048078   2.752131  -0.000042
Au   2.027539   0.243439  -0.000043
Au  -1.717390   2.443386  -0.000027
Au  -1.048077  -2.752131   0.000050
Au  -0.429887   3.511958  -2.039200
Au  -1.217847  -1.464797  -2.273397
Au   1.530520  -1.133083  -2.262820
Au   0.429835  -3.511938  -2.039207
Au   1.217797   1.464759  -2.273483
Au  -1.530580   1.133093  -2.262806
Au   0.429859  -3.511962   2.039235
Au   1.217879   1.464827   2.273361
Au  -1.530548   1.133044   2.262864
Au  -0.429809   3.511941   2.039242
Au  -1.217830  -1.464790   2.273447
Au   1.530608  -1.133054   2.262849
