20
-1555.67648300
Au   0.000000  -0.000000   1.331055
Au   0.000000   0.000000  -1.331055
Au   2.669793   0.133121  -0.000000
Au  -1.351171   2.113407  -0.000000
Au  -1.240775  -2.348756  -0.000000
Au  -2.669793  -0.133121  -0.000000
Au   1.351171  -2.113407  -0.000000
Au   1.240775   2.348756  -0.000000
Au   2.313700  -1.202490   2.302028
Au  -0.116058   2.601935   2.304120
Au  -2.161888  -1.377797   2.288214
Au  -2.313700   1.202490   2.302028
Au   0.116059  -2.601935   2.304120
Au   2.161888   1.377797   2.288214
Au  -2.313700   1.202490  -2.302028
Au   0.116059  -2.601935  -2.304120
Au   2.161888   1.377797  -2.288214
Au   2.313700  -1.202490  -2.302028
Au  -0.116058   2.601935  -2.304120
Au  -2.161888  -1.377797  -2.288214
