20
-1552.75295600
Au  -0.151858  -0.000000   4.571312
Au  -1.444364   0.000000   2.284470
Au  -4.979685  -0.000000  -4.050425
Au   5.036077   0.000000   4.528740
Au   2.245320  -0.000000  -4.545093
Au  -2.777885  -0.000000   4.537580
Au   2.434702  -0.000000   0.042815
Au  -0.160717  -0.000000   0.043891
Au  -2.549468  -0.000000  -2.739860
Au   3.829844  -0.000000   2.231792
Au  -0.371095   0.000000  -4.394977
Au   1.131833   0.000000   2.277599
Au   5.033876  -0.000000  -0.116948
Au  -4.890086  -0.000000  -1.469626
Au  -2.764301   0.000000  -5.375947
Au   2.449477   0.000000   4.506013
Au   1.050533  -0.000000  -2.220478
Au  -2.743695   0.000000  -0.031024
Au  -4.034445  -0.000000   2.244706
Au   3.655937   0.000000  -2.324539
