20
-1553.41560800
Au  -0.994118   0.000000  -3.987370
Au  -0.797683   0.000000  -6.575536
Au  -3.278048  -0.000000  -2.738273
Au   3.195914   0.000000   4.061411
Au  -5.843186  -0.000000   3.586841
Au   5.748940   0.000000  -2.371220
Au   3.568501  -0.000000  -3.783175
Au  -3.659995   0.000000   5.039356
Au  -1.186223  -0.000000   1.268991
Au   1.125707   0.000000   0.049929
Au   0.992813   0.000000   2.659509
Au  -1.060542   0.000000  -1.347169
Au  -1.290716   0.000000   3.943507
Au   1.234843  -0.000000  -2.565140
Au  -3.393829   0.000000  -0.147916
Au   3.353417  -0.000000   1.471888
Au   1.398980  -0.000000  -5.192177
Au   0.929068  -0.000000   5.311898
Au   3.474215  -0.000000  -1.126054
Au  -3.518058  -0.000000   2.440699
