20
-1552.63572000
Au   0.076898  -0.000000   3.446596
Au  -0.047713  -0.000000   0.784598
Au  -2.217683  -0.000000   2.230062
Au   2.019504   0.000000  -3.316025
Au   2.411718  -0.000000   4.558791
Au  -2.530392   0.000000  -3.028074
Au  -2.390696   0.000000  -0.369666
Au   2.173685   0.000000  -0.623451
Au  -0.151687   0.000000  -1.862568
Au   2.348652  -0.000000   1.972648
Au   4.532505  -0.000000   0.537093
Au  -4.697679   0.000000  -1.584751
Au  -2.127060  -0.000000   4.866652
Au  -0.353605   0.000000  -4.459767
Au   4.374099  -0.000000  -2.042010
Au  -4.622725   0.000000   1.041220
Au  -4.418025  -0.000000   3.638863
Au   4.266729  -0.000000  -4.617751
Au   0.676738  -2.156756  -0.586228
Au   0.676738   2.156756  -0.586228
