20
-1552.02212800
Au  -1.428818  -0.000000  -4.277238
Au   1.429894   0.000000   4.277403
Au   2.956978  -0.000000  -3.437061
Au  -2.958344   0.000000   3.437349
Au  -2.428716  -0.000000   0.851742
Au   2.428906   0.000000  -0.850859
Au   0.507235   0.000000  -2.546766
Au  -0.507751   0.000000   2.548632
Au  -6.928027   0.000000   0.161633
Au   6.927729  -0.000000  -0.162924
Au   4.899131   0.000000  -1.741383
Au  -4.899461   0.000000   1.740405
Au  -4.508180  -0.000000  -0.842087
Au   4.508246   0.000000   0.841483
Au  -1.907304  -0.000000  -1.657107
Au   1.906827   0.000000   1.657980
Au   3.860913  -0.000000   3.360005
Au  -3.860066   0.000000  -3.360328
Au   0.000404   1.281515  -0.000438
Au   0.000404  -1.281515  -0.000438
