20
-1551.38903300
Au  -0.172120   0.000000  -0.825886
Au   1.200254  -0.000000   4.117651
Au  -0.217687   0.000000   1.882283
Au  -0.202707  -0.000000  -3.484429
Au  -2.503213   0.000000   3.220307
Au   2.398153   0.000000  -3.458069
Au   4.751827  -0.000000   0.384961
Au  -4.784988  -0.000000  -0.774821
Au  -4.722717  -0.000000   1.845161
Au   4.699336  -0.000000  -2.217171
Au   2.445707   0.000000  -0.846981
Au  -2.471143   0.000000   0.540267
Au   2.468545  -0.000000   1.826928
Au  -2.422489  -0.000000  -2.088370
Au   4.832600  -0.000000   2.971084
Au  -4.655821  -0.000000  -3.384493
Au   1.070118  -1.871225   0.499440
Au   1.070118   1.871225   0.499440
Au  -1.391886  -2.232767  -0.353651
Au  -1.391886   2.232767  -0.353651
