20
-1552.09970300
Au   0.249722   0.000000  -4.920490
Au  -0.019852  -0.000000   0.243971
Au   2.293875  -0.000000  -0.956761
Au  -2.326784   0.000000   1.434027
Au   2.068484   0.000000   4.255696
Au  -2.087817   0.000000  -3.783800
Au  -2.279782   0.000000  -1.189110
Au   2.220153   0.000000   1.671739
Au   2.486126  -0.000000  -3.593532
Au  -2.496041   0.000000   4.029582
Au  -0.150067   0.000000   2.889320
Au   0.110845   0.000000  -2.331479
Au  -4.687639  -0.000000   2.643556
Au   4.653126  -0.000000  -2.155984
Au  -4.567477  -0.000000   0.053603
Au   4.520349   0.000000   0.439845
Au  -0.732284  -2.200485   1.464424
Au   0.738673  -2.243481  -0.829515
Au   0.738673   2.243481  -0.829515
Au  -0.732284   2.200485   1.464424
