20
-1552.32441400
Au  -4.624083  -0.000000   1.004663
Au   4.624083   0.000000  -1.004663
Au  -1.969327  -0.000000  -5.346363
Au   1.969327   0.000000   5.346363
Au  -4.761864  -0.000000   3.586748
Au   4.761864   0.000000  -3.586748
Au   0.100059   0.000000  -1.299740
Au  -0.100059   0.000000   1.299740
Au   4.475458  -0.000000   1.583867
Au  -4.475458   0.000000  -1.583867
Au  -2.421314  -0.000000   2.457904
Au   2.421314   0.000000  -2.457904
Au   6.597226  -0.000000   3.111738
Au  -6.597226   0.000000  -3.111738
Au   2.068997   0.000000   2.757609
Au  -2.068997  -0.000000  -2.757609
Au   4.273959  -0.000000   4.203949
Au  -4.273959   0.000000  -4.203949
Au   2.262014   0.000000   0.170127
Au  -2.262014  -0.000000  -0.170127
