20
-1546.95163000
Au   0.000000  -0.000000  -1.287861
Au  -0.000000  -0.000000   1.287861
Au  -0.000000  -0.000000   3.866193
Au  -0.000000  -0.000000  -3.866193
Au   5.316776   0.000000  -0.000000
Au  -5.316776  -0.000000  -0.000000
Au   0.000000   5.316776  -0.000000
Au  -0.000000  -5.316776  -0.000000
Au  -3.759571  -3.759571  -0.000000
Au   3.759571   3.759571  -0.000000
Au   3.759571  -3.759571  -0.000000
Au  -3.759571   3.759571  -0.000000
Au   3.080039  -1.275825   0.000000
Au  -3.080039   1.275825   0.000000
Au   1.275825   3.080039   0.000000
Au  -1.275825  -3.080039   0.000000
Au  -3.080039  -1.275825   0.000000
Au   3.080039   1.275825  -0.000000
Au  -1.275825   3.080039  -0.000000
Au   1.275825  -3.080039  -0.000000
