20
-1552.23479300
Au   0.203497  -0.000000  -1.328141
Au   0.220432  -0.000004   1.376843
Au   2.534015  -0.000000   2.611388
Au  -2.120429  -0.000000  -2.697408
Au   4.679358   0.000000   4.084141
Au  -4.247352   0.000000  -4.231008
Au   0.305872   0.000000  -3.946244
Au   0.086859  -0.000004   3.993183
Au   2.542615   0.000000  -2.611731
Au  -2.128116  -0.000000   2.585327
Au   2.509557   0.000000  -0.013979
Au  -2.117625  -0.000000  -0.030880
Au   2.351273   0.000000   5.236016
Au  -1.886370  -0.000000  -5.313508
Au  -0.584155  -2.184513   0.190726
Au  -0.584166   2.184515   0.190719
Au  -2.632636  -2.208381  -1.382273
Au   1.749997  -2.163057   1.334550
Au   1.750007   2.163063   1.334549
Au  -2.632632   2.208382  -1.382270
