20
-1553.10980600
Au   1.346172  -0.000000   1.321789
Au   0.529886  -0.000000   3.806234
Au  -3.798601   0.000000   2.488103
Au   3.812410   0.000000  -2.514799
Au   1.546365   0.000000  -3.844767
Au  -2.018158  -0.000001   4.406117
Au   3.719942  -0.000000   0.120623
Au  -3.408601  -0.000000  -2.595320
Au   1.504650   0.000000  -1.259388
Au  -3.023409  -0.000000  -0.030825
Au  -1.263462  -0.000000   1.915435
Au  -0.794351   0.000000  -2.627837
Au  -0.676067  -1.305439  -0.282014
Au  -0.676067   1.305439  -0.282014
Au   0.790830  -3.436686  -0.075022
Au   0.790830   3.436686  -0.075021
Au   0.173600  -2.194604   2.187074
Au   0.635214  -2.219000  -2.422720
Au   0.635214   2.219000  -2.422720
Au   0.173601   2.194606   2.187073
