20
-1552.30803200
Au  -3.351328   0.000000   0.910927
Au   3.351328  -0.000000  -0.910927
Au   5.629151  -0.000000   3.768733
Au  -5.629151  -0.000000  -3.768733
Au   0.728240  -0.000000  -1.078343
Au  -0.728240   0.000000   1.078343
Au  -3.039696  -0.000000  -3.621987
Au   3.039696   0.000000   3.621987
Au  -1.103191   0.000000   5.598967
Au   1.103191  -0.000000  -5.598967
Au   0.442175   0.000000   3.508944
Au  -0.442175  -0.000000  -3.508944
Au   1.839559   0.000000   1.267441
Au  -1.839559  -0.000000  -1.267441
Au   2.184028  -0.000000  -3.241338
Au  -2.184028   0.000000   3.241338
Au  -4.465693  -0.000000  -1.435277
Au   4.465693  -0.000000   1.435277
Au  -0.000000  -2.252842  -0.000000
Au  -0.000000   2.252842  -0.000000
