20
-1550.10174800
Au  -2.415400  -0.000000   4.229074
Au   2.415397   0.000000  -4.229071
Au   3.192051  -0.000000  -0.208643
Au  -3.192047   0.000000   0.208644
Au   2.707427   0.000000   4.380328
Au  -2.707430  -0.000000  -4.380325
Au   4.113187  -0.000000   2.239432
Au  -4.113184  -0.000000  -2.239438
Au  -1.502836  -0.000000  -1.889243
Au   1.502835   0.000000   1.889251
Au   0.151450  -0.000000   4.134423
Au  -0.151441   0.000000  -4.134422
Au   1.235350   0.000000  -1.911669
Au  -1.235352   0.000000   1.911655
Au   5.763932  -0.000000   0.278996
Au  -5.763934  -0.000000  -0.278993
Au   0.000000   3.891661   0.000001
Au   0.000000  -3.891661   0.000001
Au  -0.000003   1.308587   0.000000
Au  -0.000003  -1.308587   0.000000
