20
-1553.78829800
Au   0.414634  -0.000000  -1.646632
Au   0.142449   0.000000   0.965719
Au   0.578008  -0.000000  -4.257009
Au   0.261294   0.000000   3.637548
Au  -2.254182  -0.000000  -1.814781
Au   2.535006  -0.000000   2.318854
Au   2.779065   0.000000  -2.860892
Au  -2.314286   0.000000   3.343564
Au   2.628644   0.000000  -0.249268
Au  -2.473926   0.000000   0.766112
Au  -2.022440  -0.000000  -4.446515
Au   2.513985  -0.000000   4.918023
Au  -1.036312  -1.999396   2.204673
Au  -0.880391  -1.892707  -3.041958
Au  -0.880391   1.892707  -3.041958
Au  -1.036312   1.999396   2.204673
Au   1.472228  -2.219389   0.918810
Au  -0.949651  -1.998156  -0.418888
Au  -0.949651   1.998156  -0.418888
Au   1.472228   2.219389   0.918810
