20
-1551.56652300
Au   1.288059   0.000000  -0.052996
Au  -1.288059  -0.000000   0.052996
Au  -4.049619   0.000000  -4.362628
Au   4.049619  -0.000000   4.362628
Au   1.123769  -0.000000  -4.620921
Au  -1.123769   0.000000   4.620921
Au   3.897554   0.000000  -0.205336
Au  -3.897554  -0.000000   0.205336
Au   0.092983   0.000000   2.306036
Au  -0.092983   0.000000  -2.306036
Au  -1.471389  -0.000000  -4.551635
Au   1.471389   0.000000   4.551635
Au  -2.554840  -0.000000   2.428546
Au   2.554840   0.000000  -2.428546
Au  -2.721497  -0.000000  -2.132228
Au   2.721497   0.000000   2.132228
Au   0.694070  -2.265480   1.129071
Au  -0.694070  -2.265480  -1.129071
Au  -0.694070   2.265480  -1.129071
Au   0.694070   2.265480   1.129071
