20
-1553.49737400
Au  -0.522085   0.000000   1.392742
Au   0.930417  -0.000000  -2.781063
Au   0.298432  -0.000000   3.871832
Au  -2.441537   0.000000  -3.513121
Au  -3.053276   0.000000   0.782638
Au   3.334982  -0.000000  -0.383454
Au   3.509611  -0.000000  -2.980875
Au  -2.299799  -0.000000   3.348067
Au  -1.165670   0.000000  -1.223055
Au   2.068757   0.000000   1.900261
Au   0.967067   1.296042  -0.451621
Au   0.967067  -1.296042  -0.451621
Au   2.964292   2.319867   0.861552
Au  -3.410332   1.330603  -1.468718
Au  -3.410332  -1.330603  -1.468718
Au   2.964292  -2.319867   0.861552
Au   0.669292   3.604643   0.715703
Au  -1.520235   2.242726   0.136097
Au  -1.520235  -2.242726   0.136097
Au   0.669292  -3.604643   0.715703
