20
-1554.73131000
Au   0.345241   0.000000   0.909360
Au   0.196715   0.000000  -4.130241
Au  -2.652577   0.000000   3.850065
Au   2.665508   0.000000  -4.913789
Au  -2.279591   0.000000   1.250973
Au   2.344859   0.000000  -2.333563
Au   2.873017   0.000000   0.359626
Au  -0.392240   0.000000  -1.562281
Au  -2.298336   0.000000  -3.323269
Au   1.748447   0.000000   3.140909
Au  -0.897221  -2.292155   0.538853
Au  -0.897221   2.292155   0.538853
Au  -0.582966  -1.354289   3.009184
Au   1.352046  -1.908228  -0.836540
Au   1.352046   1.908228  -0.836540
Au  -0.582966   1.354289   3.009184
Au  -2.726439   1.310695  -1.067163
Au   1.579059   2.180549   1.731771
Au   1.579059  -2.180549   1.731771
Au  -2.726439  -1.310695  -1.067163
