20
-1554.23080100
Au  -0.397599   0.000002   4.268020
Au   0.234815  -0.000009  -0.985552
Au   1.946880  -0.000005   3.145976
Au  -1.418548   0.000001  -3.147028
Au  -2.924661   0.000007   3.670400
Au   3.752161   0.000012  -3.556960
Au   1.151412  -0.000003  -3.501041
Au  -0.284055  -0.000002   1.652661
Au   4.073882  -0.000007   1.662527
Au  -3.994669  -0.000002  -2.798824
Au  -0.445591  -2.252078   0.255354
Au  -0.445584   2.252069   0.255341
Au   2.536427  -1.325323  -1.673606
Au  -2.610925  -1.363484   1.484018
Au  -2.610919   1.363487   1.484013
Au   2.536411   1.325336  -1.673609
Au   1.938400   1.333503   0.853497
Au  -2.488120   1.327580  -1.124344
Au  -2.488115  -1.327571  -1.124338
Au   1.938397  -1.333513   0.853496
