20
-1547.66923600
Au   0.000000   0.000000   4.070885
Au   0.000000  -0.000000  -4.070885
Au   0.000000  -0.000000  -1.289756
Au   0.000000   0.000000   1.289756
Au   4.352002   0.000000   1.307022
Au  -4.352002  -0.000000   1.307022
Au   0.000000   4.352002   1.307022
Au   0.000000  -4.352002   1.307022
Au  -4.352002  -0.000000  -1.307022
Au   4.352002   0.000000  -1.307022
Au   0.000000   4.352002  -1.307022
Au   0.000000  -4.352002  -1.307022
Au  -2.178003  -0.000000  -2.675340
Au   2.178003   0.000000  -2.675340
Au   0.000000  -2.178003  -2.675340
Au   0.000000   2.178003  -2.675340
Au   2.178003   0.000000   2.675340
Au  -2.178003  -0.000000   2.675340
Au  -0.000000  -2.178003   2.675340
Au   0.000000   2.178003   2.675340
