20
-1550.33656200
Au   1.199441  -0.003259  -3.244151
Au  -0.346223  -0.000265   3.594933
Au   1.419375   0.001434  -0.628314
Au  -0.803276  -0.000990   1.040851
Au  -3.482296   0.001780  -2.343442
Au   3.822121   0.001010   0.503656
Au  -0.935171   0.002012  -1.728291
Au   1.676028   0.001193   1.972687
Au  -2.008560  -3.818878   0.112867
Au  -2.011088   3.819002   0.117826
Au  -0.072919  -2.158482  -0.386847
Au  -0.074070   2.160208  -0.381853
Au   2.383045  -2.162686   0.522857
Au  -2.668394  -1.341915  -0.270675
Au  -2.669158   1.341960  -0.268000
Au   2.383256   2.164775   0.523904
Au  -0.848450  -1.282883   5.786439
Au   1.941557  -1.336791  -5.355049
Au   1.936591   1.330276  -5.357267
Au  -0.841809   1.282498   5.787870
