20
-1553.98534900
Au   0.159918  -0.000002   0.921766
Au   0.050841  -0.000002  -3.063673
Au  -1.572978  -0.000000   2.871255
Au   1.870261  -0.000001  -1.066804
Au   1.009056  -0.000002   3.459428
Au  -2.338631   0.000002  -4.515536
Au  -2.228447  -0.000002  -1.776489
Au   2.946209  -0.000082   1.329918
Au  -0.594952   3.324139   0.975170
Au  -0.594972  -3.324150   0.975175
Au  -0.170100   1.774358  -1.100843
Au  -0.170109  -1.774355  -1.100857
Au  -1.496072   2.123616  -3.316266
Au   2.772472   1.906063   3.085373
Au   2.772469  -1.906027   3.085330
Au  -1.496069  -2.123617  -3.316260
Au   1.739171   2.199417   0.667636
Au  -2.198646   1.304772   0.609008
Au  -2.198646  -1.304772   0.609008
Au   1.739225  -2.199356   0.667662
