20
-1552.83242900
Au   3.536563  -0.000000   2.284924
Au  -3.536563   0.000000  -2.284924
Au   0.220000  -0.000000  -1.893697
Au  -0.220000   0.000000   1.893697
Au   4.543471  -0.000000  -0.113077
Au  -4.543471   0.000000   0.113077
Au   1.089645   0.000000  -4.365503
Au  -1.089645   0.000000   4.365503
Au  -3.895290   0.000000  -4.855561
Au   3.895290  -0.000000   4.855561
Au  -1.940739   0.000000  -0.178640
Au   1.940739  -0.000000   0.178640
Au  -1.473504   0.000000  -3.922055
Au   1.473504   0.000000   3.922055
Au  -0.000000  -1.846547   0.000000
Au   0.000000   1.846547  -0.000000
Au  -1.648402   1.886160  -2.026785
Au   1.648402   1.886160   2.026785
Au   1.648402  -1.886160   2.026785
Au  -1.648402  -1.886160  -2.026785
