20
-1553.44252700
Au   1.083382  -0.000000   2.948385
Au   0.763915   0.000000   0.211946
Au   2.745571  -0.000000  -3.484576
Au  -3.753237  -0.000000   0.785220
Au   3.152139  -0.000000  -0.925892
Au  -1.648498   0.000000  -0.756595
Au   0.403913  -0.000000  -2.386429
Au  -1.330311   0.000000   1.890973
Au   2.836649  -1.305377   1.340648
Au  -3.836479  -1.309460  -1.495923
Au  -3.836479   1.309460  -1.495923
Au   2.836649   1.305377   1.340648
Au  -1.755492   1.331002  -3.062123
Au   2.016342   2.438710   3.537632
Au   2.016342  -2.438710   3.537632
Au  -1.755492  -1.331002  -3.062123
Au  -0.316147   2.263006  -1.002691
Au   0.346691   2.230360   1.540941
Au   0.346691  -2.230360   1.540941
Au  -0.316147  -2.263006  -1.002691
