20
-1552.73500300
Au   2.425092  -0.000000   0.272800
Au  -2.425092  -0.000000  -0.272800
Au   0.099267  -0.000000  -1.280072
Au  -0.099267  -0.000000   1.280072
Au  -2.011104   0.000000  -2.861643
Au   2.011104  -0.000000   2.861643
Au   2.572494  -0.000000  -2.381910
Au  -2.572494  -0.000000   2.381910
Au   4.742460  -0.000000  -0.932473
Au  -4.742460   0.000000   0.932473
Au  -0.415966   0.000000   3.846501
Au   0.415966   0.000000  -3.846501
Au   1.129439   2.262490   0.691670
Au  -1.129439   2.262490  -0.691670
Au  -1.129439  -2.262490  -0.691670
Au   1.129439  -2.262490   0.691670
Au   1.218055   2.248642  -1.967147
Au  -1.218055   2.248642   1.967147
Au  -1.218055  -2.248642   1.967147
Au   1.218055  -2.248642  -1.967147
