20
-1554.35754600
Au  -0.663575   0.000000   3.527742
Au   2.158179  -0.000000  -1.315289
Au  -2.100808  -0.000000   1.203435
Au   4.668568  -0.000000  -0.568383
Au  -1.723237   0.000000  -2.420069
Au   0.579887  -0.000000   1.077089
Au  -0.616059   1.698262  -0.514532
Au  -0.616059  -1.698262  -0.514532
Au  -0.758279  -2.146967   2.050642
Au   0.499914  -1.333621  -2.879010
Au   0.499914   1.333621  -2.879010
Au  -0.758279   2.146967   2.050642
Au   2.920076  -1.329655   0.856607
Au  -3.234115  -1.356043  -0.741534
Au  -3.234115   1.356043  -0.741534
Au   2.920076   1.329655   0.856607
Au  -1.825999  -2.610999  -2.625274
Au   1.554956  -1.343138   3.100837
Au   1.554956   1.343138   3.100837
Au  -1.825999   2.610999  -2.625274
