20
-1555.11435900
Au   0.022172  -0.000000   3.435568
Au   1.022573  -0.000000   0.943496
Au  -2.468015   0.000000  -0.407721
Au   3.439532   0.000000  -0.301595
Au  -0.152486  -3.495772   0.517899
Au  -0.152487   3.495773   0.517900
Au  -0.197843  -1.367756  -1.103407
Au  -0.197843   1.367757  -1.103406
Au   2.237071  -1.301685  -2.277047
Au  -1.283277  -1.321648   1.518825
Au  -1.283277   1.321648   1.518825
Au   2.237071   1.301684  -2.277047
Au   1.001976  -2.233949   2.510793
Au  -2.358801  -1.304279  -2.689343
Au  -2.358800   1.304279  -2.689343
Au   1.001976   2.233948   2.510792
Au   2.178210   2.309753   0.143405
Au  -2.432981   2.668037  -0.456000
Au  -2.432981  -2.668037  -0.456000
Au   2.178210  -2.309753   0.143406
