20
-1551.17489100
Au   0.000000  -0.000000   1.904935
Au   0.000000   0.000000  -1.904935
Au   0.000000  -0.000000  -5.652556
Au   0.000000   0.000000   5.652556
Au   1.923329   0.000000   3.850196
Au  -1.923329  -0.000000   3.850196
Au  -0.000000   1.827187   3.800193
Au   0.000000  -1.827187   3.800193
Au  -1.923329  -0.000000  -3.850196
Au   1.923329   0.000000  -3.850196
Au  -0.000000   1.827187  -3.800193
Au   0.000000  -1.827187  -3.800193
Au  -2.561963   0.000000  -1.300460
Au   2.561963  -0.000000  -1.300460
Au  -0.000000  -2.539411  -1.296792
Au   0.000000   2.539411  -1.296792
Au   2.561963  -0.000000   1.300460
Au  -2.561963   0.000000   1.300460
Au  -0.000000  -2.539411   1.296792
Au   0.000000   2.539411   1.296792
