20
-1551.95067200
Au   2.529705   0.000000   1.237591
Au  -2.363621   0.000001  -1.257707
Au   0.148104  -0.000000   2.351100
Au   0.028013  -0.000000  -2.358589
Au   2.298639   0.000000   3.832509
Au  -2.109967   0.000000  -3.846290
Au   2.462409  -0.000000  -1.369201
Au  -2.296140   0.000001   1.372487
Au   2.099688  -0.000000  -3.949194
Au  -1.912198  -0.000000   3.944782
Au  -0.390400   1.310965   0.008129
Au  -0.390389  -1.310964   0.008129
Au  -4.199859   1.295744   0.105200
Au   4.426690   1.291239  -0.115844
Au   4.426690  -1.291239  -0.115844
Au  -4.199870  -1.295744   0.105200
Au   2.032380  -2.274256  -0.053217
Au  -2.311128  -3.076145   0.076989
Au  -2.311128   3.076142   0.076989
Au   2.032383   2.274258  -0.053217
