20
-1552.15512600
Au  -2.691910  -0.000000  -3.135667
Au   2.691904   0.000000   3.135645
Au   0.348081   0.000000  -1.342463
Au  -0.348162  -0.000000   1.342452
Au  -2.144389   0.000000  -0.554349
Au   2.144470   0.000000   0.554386
Au  -4.633440   0.000000  -1.370449
Au   4.633412   0.000000   1.370445
Au  -2.890582   0.000000   2.119634
Au   2.890601   0.000000  -2.119638
Au  -0.000001   2.262120  -0.000031
Au  -0.000001  -2.262120  -0.000031
Au   1.489263  -2.208265  -2.157024
Au  -1.489274  -2.208254   2.157033
Au  -1.489274   2.208254   2.157033
Au   1.489263   2.208265  -2.157024
Au  -1.151980   1.952413  -2.325311
Au   1.152001   1.952412   2.325335
Au   1.152001  -1.952412   2.325335
Au  -1.151980  -1.952413  -2.325311
