20
-1547.71867200
Au   0.000000  -0.000000  -4.056934
Au   0.000000  -0.000000   4.056934
Au   0.000000  -0.000000   1.361319
Au   0.000000  -0.000000  -1.361319
Au   2.623308  -0.000000  -1.292423
Au  -2.623308  -0.000000  -1.292423
Au  -0.000000   2.623308  -1.292423
Au   0.000000  -2.623308  -1.292423
Au  -2.623308   0.000000   1.292423
Au   2.623308   0.000000   1.292423
Au  -0.000000   2.623308   1.292423
Au  -0.000000  -2.623308   1.292423
Au  -2.566986  -0.000000   3.881146
Au   2.566986  -0.000000   3.881146
Au   0.000000  -2.566986   3.881146
Au   0.000000   2.566986   3.881146
Au   2.566986  -0.000000  -3.881146
Au  -2.566986  -0.000000  -3.881146
Au   0.000000  -2.566986  -3.881146
Au  -0.000000   2.566986  -3.881146
