20
-1553.47783300
Au  -2.621444   0.000000  -0.142311
Au   2.621443   0.000000   0.142311
Au   2.505885  -0.000000   4.523833
Au  -2.505886  -0.000000  -4.523832
Au  -3.978973  -0.000000  -2.407434
Au   3.978973   0.000000   2.407434
Au   5.270646   0.000000   0.189722
Au  -5.270646   0.000000  -0.189723
Au  -0.708547  -1.314068   1.134607
Au   0.708548  -1.314068  -1.134607
Au   0.708548   1.314068  -1.134607
Au  -0.708547   1.314068   1.134607
Au  -1.693924  -1.318196  -2.409531
Au   1.693923  -1.318197   2.409531
Au   1.693923   1.318197   2.409531
Au  -1.693924   1.318196  -2.409531
Au  -1.079743  -3.190727  -0.719236
Au   1.079744  -3.190726   0.719236
Au   1.079744   3.190726   0.719236
Au  -1.079743   3.190727  -0.719236
