20
-1554.46877400
Au   3.203084  -1.302803  -0.133543
Au  -4.280580   0.519580   4.283178
Au   2.327995   0.770844  -1.685672
Au  -1.924101   0.112519   3.317711
Au   0.675946  -0.127802   3.176647
Au   0.354364  -0.136476  -3.229019
Au  -0.952617  -0.673242   0.938644
Au  -0.320870   1.249253  -0.868231
Au   0.729059  -1.376709  -0.967600
Au  -0.848813  -2.270622   3.011594
Au  -0.588148   1.783296   1.790816
Au   0.703442   2.447855  -2.949611
Au  -1.927872  -0.918205  -4.217580
Au   3.327386  -0.455665   2.404236
Au   4.072471   1.099917   0.336048
Au  -3.923197   0.109332  -2.885440
Au   1.338852  -2.072207   1.547095
Au  -1.785562  -0.824227  -1.602537
Au  -1.728744   1.476213  -3.089885
Au   1.547905   0.589149   0.823149
