20
-1552.55946400
Au  -0.169093  -0.000000   0.281643
Au  -0.165581  -0.000000  -2.590184
Au  -0.129152  -2.724498   0.377495
Au  -0.129152   2.724498   0.377495
Au   2.313558   3.526374   0.021113
Au  -2.575630   3.587932   0.290817
Au  -2.575630  -3.587932   0.290817
Au   2.313558  -3.526374   0.021113
Au   1.582164  -1.329487  -1.174560
Au  -2.140251  -1.301819   1.448848
Au  -2.140251   1.301819   1.448848
Au   1.582164   1.329487  -1.174560
Au  -1.874953   1.503986  -1.195142
Au   1.855788   1.382814   1.489526
Au   1.855788  -1.382815   1.489527
Au  -1.874953  -1.503986  -1.195143
Au  -2.143241  -1.305712  -3.762747
Au   3.279054  -1.327565   3.658920
Au   3.279054   1.327565   3.658920
Au  -2.143241   1.305712  -3.762746
