20
-1554.18361000
Au   4.263562  -0.000000  -3.091552
Au  -4.263562  -0.000000   3.091552
Au  -3.163798   0.000000   0.714044
Au   3.163798   0.000000  -0.714044
Au   2.049436  -1.316205  -2.721239
Au  -2.049436  -1.316205   2.721239
Au  -2.049436   1.316205   2.721239
Au   2.049436   1.316205  -2.721239
Au  -3.018349  -1.303495  -1.563783
Au   3.018349  -1.303495   1.563783
Au   3.018349   1.303495   1.563783
Au  -3.018349   1.303495  -1.563783
Au   0.488989   1.358631   2.163640
Au  -0.488989   1.358631  -2.163640
Au  -0.488989  -1.358631  -2.163640
Au   0.488989  -1.358631   2.163640
Au  -1.292526   2.075725   0.283618
Au   1.292526   2.075725  -0.283618
Au   1.292526  -2.075725  -0.283618
Au  -1.292526  -2.075725   0.283618
