20
-1553.84396900
Au  -0.122250  -3.445377  -0.190464
Au   0.112998   3.445201   0.196115
Au  -0.431611   1.053586  -0.654670
Au   0.394488  -1.053608   0.677828
Au   2.273583   1.680052   3.729079
Au  -2.574870   2.889453  -4.207983
Au  -2.321673  -1.679480  -3.699257
Au   2.628227  -2.889748   4.175212
Au  -0.674898   5.593397  -1.167625
Au   0.668170   5.846366   1.042602
Au   0.743031  -5.593572   1.125157
Au  -0.630511  -5.846126  -1.066337
Au  -1.511489  -3.805729  -2.426523
Au   1.254451  -3.177361   2.002335
Au   1.490457   3.805957   2.438877
Au  -1.235605   3.177156  -2.013892
Au  -1.809792   0.753967  -2.897385
Au   0.921701   1.358749   1.536923
Au   1.788299  -0.754021   2.911570
Au  -0.962705  -1.358861  -1.511562
