20
-1550.42103900
Au  -0.000004   3.996439  -0.000004
Au   0.000004  -3.996437   0.000005
Au  -0.000000  -1.318855  -0.000001
Au   0.000000   1.318856   0.000001
Au  -0.137854  -1.298196  -2.647631
Au   0.137843  -1.298191   2.647629
Au   0.137848   1.298190   2.647631
Au  -0.137836   1.298185  -2.647630
Au   1.694172   2.764005  -1.515053
Au  -1.694167   2.764006   1.515059
Au  -1.694172  -2.764004   1.515054
Au   1.694167  -2.764005  -1.515060
Au  -2.418374  -1.299604   3.526358
Au   2.418364  -1.299588  -3.526355
Au   2.418379   1.299611  -3.526360
Au  -2.418369   1.299595   3.526357
Au   0.432533   1.290589  -5.198289
Au  -0.432525   1.290596   5.198290
Au  -0.432528  -1.290591   5.198288
Au   0.432520  -1.290599  -5.198289
