20
-1548.21080900
Au   0.000000   0.000000   4.513139
Au   0.000000   0.000000  -4.513139
Au   0.000000  -0.000000   1.946116
Au   0.000000  -0.000000  -1.946116
Au   5.429977  -4.255489  -0.000000
Au  -5.429977   4.255489   0.000000
Au   4.255489   5.429977   0.000000
Au  -4.255489  -5.429977  -0.000000
Au  -0.208192   3.521930   0.000000
Au   0.208192  -3.521930   0.000000
Au  -3.521931  -0.208192   0.000000
Au   3.521931   0.208192  -0.000000
Au   1.371014  -1.210840   0.000000
Au  -1.371014   1.210840  -0.000000
Au   1.210839   1.371014   0.000000
Au  -1.210839  -1.371014   0.000000
Au   2.392384   3.665552  -0.000000
Au  -2.392384  -3.665552   0.000000
Au  -3.665552   2.392384  -0.000000
Au   3.665552  -2.392384   0.000000
