20
-1549.45571900
Au  -0.000000  -0.000000  -2.273656
Au   0.000000   0.000000   2.273656
Au  -0.000000  -0.000000  -4.847854
Au   0.000000   0.000000   4.847854
Au   3.569283   0.413630   0.000000
Au  -3.569283  -0.413630   0.000000
Au   0.530901   3.455452   0.000000
Au  -0.530901  -3.455452   0.000000
Au   1.451557  -1.726894   0.000000
Au  -1.451557   1.726894   0.000000
Au   0.982420   0.838133   0.000000
Au  -0.982420  -0.838133   0.000000
Au  -2.577312  -2.436189  -1.311214
Au   2.577312   2.436189  -1.311214
Au   3.711640  -1.816213  -1.315430
Au  -3.711640   1.816213  -1.315430
Au   2.577312   2.436189   1.311214
Au  -2.577312  -2.436189   1.311214
Au  -3.711640   1.816213   1.315430
Au   3.711640  -1.816213   1.315430
