20
-1549.45572300
Au   0.000690   0.000899  -4.847269
Au  -0.000689  -0.000901   4.847280
Au   0.003198   0.003743  -2.273290
Au  -0.003187  -0.003750   2.273302
Au   0.768021   1.038848   0.002876
Au  -0.768023  -1.038846  -0.002863
Au  -1.803729   1.354229   0.000092
Au   1.803726  -1.354227  -0.000105
Au   3.384423   1.216400  -0.000210
Au  -3.384425  -1.216399   0.000208
Au  -0.265617   3.487182  -0.000084
Au   0.265616  -3.487180   0.000082
Au  -1.956272  -2.956763   1.312823
Au   1.958980   2.960990   1.309488
Au   4.023513  -0.924327   1.315450
Au  -4.023607   0.924444   1.315757
Au   1.956264   2.956755  -1.312830
Au  -1.958975  -2.960980  -1.309496
Au  -4.023519   0.924326  -1.315453
Au   4.023611  -0.924443  -1.315760
