20
-1551.11316700
Au   5.193916   1.338613   0.000000
Au  -5.193916  -1.338613  -0.000000
Au  -1.338842   5.194171  -0.000000
Au   1.338842  -5.194171  -0.000000
Au   4.687299  -3.640902   0.000000
Au  -4.687299   3.640902  -0.000000
Au   3.640385   4.687515   0.000000
Au  -3.640385  -4.687515   0.000000
Au   1.078831   4.257232   0.000000
Au  -1.078831  -4.257232  -0.000000
Au  -4.257312   1.079285   0.000000
Au   4.257312  -1.079285  -0.000000
Au  -0.183322  -1.807759   0.000000
Au   0.183322   1.807759  -0.000000
Au   1.807975  -0.183269  -0.000000
Au  -1.807975   0.183269  -0.000000
Au   2.232977  -2.762340   0.000000
Au  -2.232977   2.762340  -0.000000
Au   2.762235   2.233170  -0.000000
Au  -2.762235  -2.233170   0.000000
