20
-1544.63285300
Au   4.315403  -4.780681   0.000001
Au  -4.315619   4.780725   0.000001
Au   4.780804   4.315465   0.000001
Au  -4.780770  -4.315488   0.000001
Au   3.520140   2.058886  -0.000002
Au  -3.520053  -2.058919  -0.000002
Au  -2.058983   3.520114   0.000002
Au   2.058852  -3.520114   0.000002
Au  -6.104668  -2.097253  -0.000001
Au   6.104770   2.097272  -0.000001
Au   2.097147  -6.104702  -0.000001
Au  -2.097250   6.104697  -0.000001
Au   0.919464  -1.604127  -1.311971
Au  -0.919415   1.604139  -1.311955
Au   1.604086   0.919388  -1.311885
Au  -1.604022  -0.919402  -1.311903
Au  -0.919404   1.604138   1.311948
Au   0.919453  -1.604125   1.311964
Au  -1.604032  -0.919398   1.311909
Au   1.604096   0.919384   1.311892
