20
-1553.63965100
Au  -1.633613   1.999983  -0.000015
Au   1.633617  -1.999981  -0.000020
Au  -1.999671  -1.634054  -0.000021
Au   1.999672   1.634055  -0.000014
Au   2.226704  -2.726911   2.450502
Au  -2.226687   2.726910   2.450498
Au   2.726881   2.226755   2.450503
Au  -2.726856  -2.226740   2.450494
Au  -2.226642   2.726853  -2.450649
Au   2.226657  -2.726843  -2.450648
Au  -2.726782  -2.226670  -2.450645
Au   2.726817   2.226699  -2.450662
Au   0.186921   1.851971   1.981728
Au  -0.186973  -1.851960   1.981729
Au  -1.851789   0.186952   1.981941
Au   1.851798  -0.186978   1.981940
Au  -0.187020  -1.851964  -1.981564
Au   0.186960   1.851981  -1.981563
Au   1.851820  -0.186954  -1.981767
Au  -1.851813   0.186896  -1.981768
