20
-1546.39113500
Au  -3.898060  -1.031996   0.000000
Au   3.898060   1.031996  -0.000000
Au   1.038590  -3.900941  -0.000000
Au  -1.038590   3.900941   0.000000
Au   3.682171   3.252818  -1.303751
Au  -3.682171  -3.252818  -1.303751
Au  -3.259611   3.690180  -1.303897
Au   3.259611  -3.690181  -1.303898
Au  -3.682171  -3.252818   1.303751
Au   3.682171   3.252818   1.303751
Au   3.259611  -3.690180   1.303897
Au  -3.259611   3.690181   1.303898
Au   1.170776   3.815327   1.325910
Au  -1.170775  -3.815327   1.325910
Au  -3.820199   1.178227   1.325641
Au   3.820199  -1.178226   1.325642
Au  -1.170776  -3.815327  -1.325910
Au   1.170775   3.815327  -1.325910
Au   3.820199  -1.178227  -1.325641
Au  -3.820199   1.178226  -1.325642
