20
-1553.64406800
Au   0.533894   0.992591  -1.629317
Au  -0.096698   0.054347   0.939440
Au   0.595195  -0.026779  -4.057833
Au   0.003050  -0.054197   3.984551
Au  -1.912340  -1.412650   5.085127
Au   2.152919   1.006619   4.990259
Au  -1.504456   1.351011  -3.240250
Au   1.685133  -2.246532  -3.237778
Au   1.585003   1.423574   2.495435
Au  -1.704641  -1.416667   2.506147
Au   1.451664  -1.457185  -0.691540
Au  -1.817919   1.655436  -0.527149
Au   2.830278  -0.026066  -2.411352
Au  -3.595029   0.390289  -1.981397
Au   0.656327  -3.830611  -1.437333
Au  -0.472143   3.436939  -1.864827
Au   2.476971   0.829948   0.106986
Au  -2.612394  -0.747052   0.153199
Au  -0.716825  -2.529804   0.357263
Au   0.462012   2.606789   0.460369
