20
-1553.40389700
Au  -0.000021   0.000027  -1.327151
Au  -0.000039   0.000258   1.242958
Au  -0.000164  -0.000259  -3.931531
Au  -0.001045   0.000727   3.823920
Au   1.874433   1.481315   0.126424
Au  -1.874235  -1.481308   0.126538
Au   2.081043  -1.155935  -0.151544
Au  -2.080909   1.155831  -0.151353
Au  -3.467835  -2.876832  -1.413904
Au   3.468244   2.876846  -1.413921
Au  -1.307406   2.553639   1.929317
Au   1.307710  -2.554298   1.929131
Au  -2.026631  -1.078927  -2.572157
Au   2.026617   1.079006  -2.572070
Au   1.148445   2.049125   2.592241
Au  -1.148020  -2.049211   2.592397
Au   2.413066  -0.207067   2.303464
Au  -2.413199   0.206695   2.303777
Au  -1.755000   1.512840  -2.718160
Au   1.754945  -1.512474  -2.718377
