20
-1550.47790600
Au  -4.157966  -4.157966   2.613358
Au   4.157966   4.157966   2.613358
Au  -4.157966   4.157966  -2.613358
Au   4.157966  -4.157966  -2.613358
Au  -0.919286  -0.919286  -3.388948
Au   0.919286   0.919286  -3.388948
Au  -0.919286   0.919286   3.388948
Au   0.919286  -0.919286   3.388948
Au  -0.993837  -0.993837   1.599001
Au   0.993837   0.993837   1.599001
Au  -0.993837   0.993837  -1.599001
Au   0.993837  -0.993837  -1.599001
Au  -1.496384  -1.496384  -0.910442
Au   1.496384   1.496384  -0.910442
Au  -1.496384   1.496384   0.910443
Au   1.496384  -1.496384   0.910443
Au  -2.780163  -2.780163   0.930558
Au   2.780163   2.780163   0.930558
Au  -2.780163   2.780163  -0.930558
Au   2.780163  -2.780163  -0.930558
