20
-1553.26382200
Au   0.000006  -0.000002  -1.309597
Au   0.000000  -0.000000   1.313077
Au   0.000049  -0.000050   3.949452
Au   0.000035   0.000035  -3.941294
Au  -1.739580  -1.738504  -4.740555
Au   1.739547   1.738470  -4.740523
Au  -1.731550   1.733010   4.805072
Au   1.731505  -1.732962   4.805023
Au  -2.274595   0.368354  -0.032238
Au   2.274591  -0.368355  -0.032248
Au  -0.366458   2.274664  -0.031851
Au   0.366454  -2.274663  -0.031862
Au   2.283449   0.360854  -2.582143
Au  -2.283456  -0.360850  -2.582135
Au   0.476339  -2.325646   2.578778
Au  -0.476324   2.325665   2.578752
Au  -2.325034   0.478933   2.578264
Au   2.325017  -0.478947   2.578289
Au  -0.364082  -2.283237  -2.581124
Au   0.364088   2.283232  -2.581134
