20
-1553.46338100
Au  -0.000000   0.000000   3.500751
Au   0.000000  -0.000000  -3.496948
Au  -0.000000   0.000000   6.075577
Au   0.000000   0.000000  -6.071781
Au  -2.300051  -2.192159   0.000942
Au   2.300051   2.192159   0.000942
Au  -2.104974   2.388256   0.000315
Au   2.104974  -2.388256   0.000315
Au  -4.346250  -0.536515  -0.005799
Au   4.346250   0.536515  -0.005799
Au   0.161336   3.678159   0.002739
Au  -0.161336  -3.678159   0.002739
Au  -0.045166  -1.430572  -1.322716
Au   0.045166   1.430572  -1.322716
Au  -2.208599   0.097557   1.355455
Au   2.208599  -0.097557   1.355455
Au  -0.045325  -1.428656   1.325144
Au   0.045325   1.428656   1.325144
Au   2.206015  -0.096926  -1.359879
Au  -2.206015   0.096926  -1.359879
