20
-1554.33168200
Au   0.000000  -0.000000  -1.304675
Au   0.000000  -0.000000   1.304675
Au  -0.000000   0.000000  -3.915346
Au   0.000000   0.000000   3.915346
Au  -2.032353  -2.032353   1.720594
Au   2.032353   2.032353   1.720594
Au  -2.032353   2.032353  -1.720594
Au   2.032353  -2.032353  -1.720594
Au   2.321427   0.000000  -0.000000
Au  -2.321427   0.000000   0.000000
Au  -0.000000  -2.321427   0.000000
Au   0.000000   2.321427   0.000000
Au   0.416914   2.277658  -2.617706
Au  -0.416914  -2.277658  -2.617706
Au   2.277658  -0.416914   2.617706
Au  -2.277658   0.416914   2.617706
Au  -0.416914   2.277658   2.617706
Au   0.416914  -2.277658   2.617706
Au  -2.277658  -0.416914  -2.617706
Au   2.277658   0.416914  -2.617706
