20
-1549.63828600
Au   0.000000  -0.000000   3.987804
Au   0.000000  -0.000000  -3.987804
Au   0.000000  -0.000000   1.408911
Au   0.000000  -0.000000  -1.408911
Au  -4.818132  -0.000000   0.000000
Au   4.818132   0.000000   0.000000
Au   0.000000   4.818132   0.000000
Au  -0.000000  -4.818132   0.000000
Au   2.191760   0.000000  -0.000000
Au  -2.191760  -0.000000  -0.000000
Au  -0.000000  -2.191760  -0.000000
Au   0.000000   2.191760  -0.000000
Au   3.540996   1.714941   1.452700
Au  -3.540996  -1.714941   1.452700
Au   1.714941  -3.540996  -1.452700
Au  -1.714941   3.540996  -1.452700
Au  -3.540996   1.714941  -1.452700
Au   3.540996  -1.714941  -1.452700
Au  -1.714941  -3.540996   1.452700
Au   1.714941   3.540996   1.452700
