20
-1547.85832700
Au  -0.000000   0.000000  -4.443704
Au  -0.000000  -0.000000   4.443704
Au  -0.000000  -0.000000   1.877492
Au  -0.000000  -0.000000  -1.877492
Au  -4.412082  -0.000000  -0.000000
Au   4.412082   0.000000  -0.000000
Au   0.000000   4.412082  -0.000000
Au  -0.000000  -4.412082  -0.000000
Au   1.851581  -0.000000   0.000000
Au  -1.851581   0.000000   0.000000
Au  -0.000000  -1.851581  -0.000000
Au  -0.000000   1.851581   0.000000
Au   4.146707   2.327952  -1.038076
Au  -4.146707  -2.327952  -1.038076
Au   2.327952  -4.146707   1.038076
Au  -2.327952   4.146707   1.038076
Au  -4.146707   2.327952   1.038076
Au   4.146707  -2.327952   1.038076
Au  -2.327952  -4.146707  -1.038076
Au   2.327952   4.146707  -1.038076
