20
-1553.27592100
Au   3.889413   2.719664   0.782617
Au  -3.632423  -2.729946   0.542772
Au   3.186361  -2.174034  -0.513692
Au  -2.589972   2.107872  -0.806527
Au  -1.098030  -2.441695   0.027880
Au   1.726433   2.476527  -0.672658
Au  -0.431200   1.190029   0.385117
Au   1.145707  -0.998780   0.686068
Au  -0.104798   0.044216   2.789096
Au  -1.646619  -0.753356   4.719660
Au  -0.493574  -0.543211  -3.222564
Au  -1.511823   1.447130  -4.543013
Au   1.898238   1.332716   1.710341
Au  -2.133022  -1.605405   2.334597
Au   0.855813  -2.132915  -1.698470
Au  -0.339413   1.880296  -2.256572
Au  -2.713133  -0.329237   0.087875
Au   3.332972   0.409000  -0.314303
Au  -0.568689   3.729910  -0.453217
Au   1.227757  -3.628782   0.414994
