20
-1554.20619200
Au  -1.339694  -0.116032   2.190814
Au   1.339694   0.116032   2.190815
Au  -0.887369   0.966780  -2.234933
Au   0.887368  -0.966780  -2.234933
Au  -2.372051  -2.179898   0.761669
Au   2.372056   2.179899   0.761672
Au  -1.752152   2.996685  -0.811128
Au   1.752150  -2.996685  -0.811129
Au  -1.780512  -1.517167  -1.779532
Au   1.780529   1.517141  -1.779561
Au  -1.931575   2.388378   1.717641
Au   1.931577  -2.388377   1.717641
Au  -2.516082   0.444580  -0.122111
Au   2.516084  -0.444578  -0.122112
Au  -0.029477   1.288887   0.246823
Au   0.029470  -1.288904   0.246826
Au   4.299706   1.351030  -0.785736
Au  -4.299707  -1.351030  -0.785737
Au  -0.189654  -3.807200   0.816491
Au   0.189638   3.807241   0.816521
