20
-1530.90836300
Au  -0.000000   0.000000  -1.288435
Au   0.000000  -0.000000   1.288435
Au  -0.000000   0.000000   3.834184
Au   0.000000  -0.000000  -3.834184
Au   4.334961   4.334961   1.288060
Au  -4.334961  -4.334961   1.288060
Au  -4.334961   4.334961   1.288060
Au   4.334961  -4.334961   1.288060
Au  -4.334961   4.334961  -1.288060
Au   4.334961  -4.334961  -1.288060
Au   4.334961   4.334961  -1.288060
Au  -4.334961  -4.334961  -1.288060
Au   5.550575   5.550575  -3.158654
Au  -5.550575  -5.550575  -3.158654
Au  -5.550575   5.550575  -3.158654
Au   5.550575  -5.550575  -3.158654
Au  -5.550575   5.550575   3.158654
Au   5.550575  -5.550575   3.158654
Au   5.550575   5.550575   3.158654
Au  -5.550575  -5.550575   3.158654
