20
-1547.47314900
Au  -2.523555  -2.523554   0.152817
Au   2.523554   2.523554   0.152817
Au  -2.523554   2.523554  -0.152817
Au   2.523555  -2.523554  -0.152817
Au   0.922019   0.922019   4.699780
Au  -0.922019  -0.922019   4.699780
Au   0.922019  -0.922019  -4.699780
Au  -0.922019   0.922019  -4.699780
Au  -1.404518  -1.404518   2.218609
Au   1.404518   1.404518   2.218609
Au  -1.404518   1.404518  -2.218609
Au   1.404518  -1.404518  -2.218609
Au   4.395899  -0.000001  -0.000000
Au  -4.395899  -0.000000   0.000000
Au   0.000000  -4.395899   0.000000
Au  -0.000000   4.395899   0.000000
Au  -1.837788   0.000000   0.000000
Au   1.837788   0.000000  -0.000000
Au  -0.000000   1.837788   0.000000
Au  -0.000000  -1.837788   0.000000
