20
-1547.83828600
Au   0.921022   0.921022   2.314728
Au  -0.921022  -0.921022   2.314728
Au   0.921022  -0.921022  -2.314728
Au  -0.921022   0.921022  -2.314728
Au   2.614696   2.614696   3.313791
Au  -2.614696  -2.614696   3.313791
Au   2.614696  -2.614696  -3.313791
Au  -2.614696   2.614696  -3.313791
Au   2.458444   2.458444   0.737663
Au  -2.458444  -2.458444   0.737663
Au   2.458444  -2.458444  -0.737663
Au  -2.458444   2.458444  -0.737663
Au  -1.854278   0.000000  -0.000000
Au   1.854278  -0.000000  -0.000000
Au   0.000000   1.854278   0.000000
Au  -0.000000  -1.854278   0.000000
Au   4.421294   0.000000   0.000000
Au  -4.421294  -0.000000   0.000000
Au   0.000000  -4.421294  -0.000000
Au  -0.000000   4.421294  -0.000000
