20
-1550.56880000
Au  -1.820409   0.000002  -0.000012
Au   1.820409  -0.000002  -0.000012
Au  -0.000002   1.821038  -0.000013
Au   0.000002  -1.821038  -0.000013
Au   1.569847   3.389478  -1.404861
Au  -1.569847  -3.389478  -1.404861
Au   3.389214  -1.564208   1.410515
Au  -3.389214   1.564208   1.410515
Au  -1.569823   3.389477   1.404855
Au   1.569823  -3.389477   1.404855
Au  -3.389214  -1.564232  -1.410522
Au   3.389214   1.564232  -1.410522
Au  -0.901118   4.061769  -1.012955
Au   0.901118  -4.061769  -1.012955
Au   4.060520   0.905441   1.010210
Au  -4.060520  -0.905441   1.010210
Au   0.901129   4.061741   1.012973
Au  -0.901129  -4.061741   1.012973
Au  -4.060548   0.905430  -1.010191
Au   4.060548  -0.905430  -1.010191
