20
-1553.88013300
Au  -0.000386  -0.000297   0.663576
Au   0.000472   0.000030   4.434074
Au  -2.278048   1.308778  -2.683570
Au   0.005523  -2.627207  -2.683572
Au   2.272802   1.318364  -2.683211
Au  -2.245892   1.288593  -0.021597
Au   0.006386  -2.589617  -0.021542
Au   2.238797   1.300419  -0.021481
Au  -1.385711  -0.804385  -1.397090
Au   1.388967  -0.797865  -1.397079
Au  -0.003657   1.600991  -1.397220
Au  -0.002587   1.519228  -4.043402
Au  -1.313180  -0.761748  -4.043255
Au   1.317430  -0.756398  -4.043016
Au  -1.621957   0.927387   2.541380
Au   0.007118  -1.868873   2.541230
Au   1.613730   0.941951   2.540943
Au  -0.010943   2.541053   3.905471
Au  -2.195075  -1.279294   3.906021
Au   2.206212  -1.261111   3.903339
