20
-1545.00915300
Au  -4.617150   0.000000   0.000000
Au   4.617150   0.000000  -0.000000
Au  -0.000000  -4.617150  -0.000000
Au  -0.000000   4.617150   0.000000
Au  -0.000000  -0.000000  -4.617150
Au  -0.000000   0.000000   4.617150
Au   1.953554  -0.000000  -0.000000
Au  -1.953554   0.000000   0.000000
Au   0.000000   1.953554   0.000000
Au   0.000000  -1.953554  -0.000000
Au  -0.000000   0.000000   1.953554
Au   0.000000  -0.000000  -1.953554
Au  -1.838580  -1.838580  -1.838580
Au   1.838580   1.838580  -1.838580
Au   1.838580  -1.838580   1.838580
Au  -1.838580   1.838580   1.838580
Au   1.838580   1.838580   1.838580
Au  -1.838580  -1.838580   1.838580
Au  -1.838580   1.838580  -1.838580
Au   1.838580  -1.838580  -1.838580
