20
-1544.88973100
Au  -4.671224   0.000000  -0.000000
Au   4.671224   0.000000  -0.000000
Au   0.000000  -4.671224  -0.000000
Au  -0.000000   4.671224   0.000000
Au   0.000000  -0.000000  -4.671224
Au   0.000000  -0.000000   4.671224
Au  -1.964550  -0.000000  -0.000000
Au   1.964550   0.000000   0.000000
Au  -0.000000  -1.964550   0.000000
Au   0.000000   1.964550  -0.000000
Au  -0.000000   0.000000  -1.964550
Au   0.000000  -0.000000   1.964550
Au  -1.837594  -1.837594  -1.837594
Au   1.837594   1.837594  -1.837594
Au   1.837594  -1.837594   1.837594
Au  -1.837594   1.837594   1.837594
Au   1.837594   1.837594   1.837594
Au  -1.837594  -1.837594   1.837594
Au  -1.837594   1.837594  -1.837594
Au   1.837594  -1.837594  -1.837594
