20
-1553.10476600
Au   2.406993   2.394856   2.424157
Au  -2.406994  -2.394856   2.424157
Au  -2.406991   2.394854  -2.424155
Au   2.406996  -2.394858  -2.424159
Au  -2.407001  -2.394863  -2.424163
Au   2.407003   2.394864  -2.424164
Au   2.407000  -2.394862   2.424162
Au  -2.407003   2.394864   2.424165
Au  -0.000014   1.415208  -2.116099
Au   0.000005  -1.415208  -2.116099
Au   0.000011   1.415208   2.116099
Au  -0.000007  -1.415208   2.116099
Au  -2.136490  -0.000008   1.383387
Au  -2.136488   0.000008  -1.383388
Au   2.136489   0.000005   1.383388
Au   2.136490  -0.000005  -1.383387
Au   1.401478  -2.239583  -0.000002
Au  -1.401478  -2.239583   0.000006
Au   1.401478   2.239583   0.000006
Au  -1.401478   2.239583  -0.000009
