20
-1555.38290000
Au   0.000000  -0.000000   0.611798
Au   0.000000  -0.000000  -2.022229
Au  -1.055898   2.425304   1.027707
Au  -1.572463  -2.127060   1.027711
Au   2.628308  -0.298313   1.027710
Au   1.055927  -2.425291   1.027707
Au   1.572437   2.127080   1.027711
Au  -2.628311   0.298281   1.027710
Au   2.402628   1.045526  -1.323044
Au  -2.106770   1.557974  -1.323034
Au  -0.295863  -2.603494  -1.323049
Au  -2.402629  -1.045527  -1.323039
Au   2.106772  -1.557975  -1.323030
Au   0.295863   2.603496  -1.323044
Au  -3.608993   2.668077   0.530405
Au  -0.506138  -4.459580   0.530403
Au   4.115171   1.791478   0.530396
Au   3.608976  -2.668064   0.530407
Au   0.506135   4.459558   0.530405
Au  -4.115152  -1.791469   0.530398
