20
-1555.37320900
Au   0.000000  -0.000001   1.802750
Au   0.000000  -0.000000  -1.597491
Au   0.719204  -2.522481  -0.960928
Au   1.824550   1.883966  -0.961143
Au  -2.543732   0.638442  -0.961219
Au  -0.719204   2.522482  -0.960928
Au  -1.824550  -1.883966  -0.961142
Au   2.543731  -0.638442  -0.961218
Au  -3.216999   3.115999  -0.472579
Au  -1.090078  -4.344103  -0.472441
Au   4.306996   1.228055  -0.473861
Au   3.216999  -3.115999  -0.472579
Au   1.090078   4.344103  -0.472441
Au  -4.306996  -1.228055  -0.473861
Au  -1.897777   1.838021   1.400039
Au  -0.642983  -2.562668   1.400219
Au   2.540974   0.724592   1.399283
Au   1.897777  -1.838021   1.400039
Au   0.642983   2.562668   1.400220
Au  -2.540974  -0.724592   1.399283
