20
-1550.55500600
Au  -0.000000   0.000000   3.877257
Au  -0.000000   0.000000  -3.877257
Au   0.000000  -0.000000   1.289586
Au   0.000000  -0.000000  -1.289586
Au   3.808578   0.001385  -1.325858
Au  -3.808578  -0.001385  -1.325858
Au   0.000116   2.607891  -1.302721
Au  -0.000116  -2.607891  -1.302721
Au  -3.808578  -0.001385   1.325858
Au   3.808578   0.001385   1.325858
Au   0.000116   2.607891   1.302721
Au  -0.000116  -2.607891   1.302721
Au   1.849780  -3.932695  -0.000000
Au  -1.849780   3.932695   0.000000
Au   1.989872   1.324153   0.000000
Au  -1.989872  -1.324153  -0.000000
Au  -1.849343  -3.934240  -0.000000
Au   1.849343   3.934240   0.000000
Au  -1.990624   1.322866  -0.000000
Au   1.990624  -1.322866  -0.000000
