20
-1553.15673200
Au  -0.105465  -0.414104   1.263383
Au   0.105511   0.413902  -1.263337
Au  -4.376247   0.290538  -0.915628
Au   0.564258  -4.848064  -0.772783
Au   3.727745   1.140116  -1.137527
Au   4.376283  -0.289247   0.916432
Au  -0.564716   4.848038   0.772695
Au  -3.727836  -1.140319   1.137345
Au   1.607557   2.566957  -1.529332
Au  -2.263728   1.086955  -2.200666
Au   0.241241  -2.355680  -1.537437
Au  -1.607642  -2.567300   1.528939
Au   2.263808  -1.087154   2.200600
Au  -0.241111   2.355759   1.537413
Au  -2.250026   1.038845   0.486742
Au   0.908582  -2.923117   0.947496
Au   1.993679   1.195004   0.818935
Au   2.250435  -1.038994  -0.486657
Au  -0.908647   2.923042  -0.947595
Au  -1.993680  -1.195177  -0.819018
