20
-1551.05131500
Au  -0.609390   0.629297  -0.000000
Au   0.317705  -0.482440   4.690120
Au   0.317705  -0.482440  -4.690120
Au   0.328898  -0.618271  -2.131834
Au   0.328898  -0.618271   2.131834
Au   4.652126  -3.821137  -0.000000
Au   1.106185   4.807468  -0.000000
Au  -7.107472  -1.529608   0.000000
Au  -2.637312  -1.036971   0.000000
Au   1.852829  -0.339729   0.000000
Au   1.465381   2.227578   0.000000
Au   3.894043   1.295496   0.000000
Au  -3.009586   1.608869  -0.000000
Au  -0.204921  -2.014405  -0.000000
Au   2.223650  -2.923122  -0.000000
Au   3.530920   3.866807   0.000000
Au  -5.061727   0.048849   0.000000
Au   4.303039  -1.263456   0.000000
Au  -0.959221   3.223976  -0.000000
Au  -4.731750  -2.578491   0.000000
