20
-1550.52538800
Au   0.000080  -0.000182  -0.000000
Au  -0.000186  -0.000219  -2.599950
Au  -0.000186  -0.000219   2.599950
Au   0.000098   0.000081   5.194683
Au   0.000098   0.000081  -5.194683
Au   0.541755  -5.137656   0.000000
Au   4.177907   3.038447  -0.000000
Au  -4.719856   2.099732   0.000000
Au   2.383579  -1.060236  -0.000000
Au  -0.273570   2.593845   0.000000
Au  -2.109711  -1.534053   0.000000
Au  -4.487636  -0.478967  -0.000000
Au   2.658783  -3.647158  -0.000000
Au   1.828408   4.126126  -0.000000
Au  -1.839578  -4.121286   0.000000
Au   4.488841   0.468090  -0.000000
Au  -2.649078   3.653801   0.000000
Au   0.270333  -2.561969  -0.000000
Au   2.083531   1.514929  -0.000000
Au  -2.353612   1.046813   0.000000
