20
-1543.40359200
Au   0.000000   0.000000   3.858999
Au  -0.000000   0.000000  -3.858999
Au   0.000000   0.000000   1.285997
Au  -0.000000   0.000000  -1.285997
Au   3.082190   1.280175   0.000000
Au  -3.082190  -1.280175  -0.000000
Au  -1.280175   3.082190  -0.000000
Au   1.280175  -3.082190  -0.000000
Au  -3.082190   1.280175  -0.000000
Au   3.082190  -1.280175   0.000000
Au   1.280175   3.082190   0.000000
Au  -1.280175  -3.082190  -0.000000
Au   1.280769  -5.638704  -0.000000
Au  -1.280769   5.638704   0.000000
Au   5.638704   1.280769  -0.000000
Au  -5.638704  -1.280769   0.000000
Au  -1.280769  -5.638704   0.000000
Au   1.280769   5.638704  -0.000000
Au  -5.638704   1.280769   0.000000
Au   5.638704  -1.280769   0.000000
