20
-1551.91831200
Au   0.000016  -0.000016  -0.000000
Au  -0.000011   0.000012  -2.804402
Au  -0.000011   0.000012   2.804402
Au   0.000010  -0.000006   5.399859
Au   0.000010  -0.000006  -5.399859
Au   3.335239  -2.453490   0.000000
Au   0.457164   4.115136  -0.000000
Au  -3.792348  -1.661615   0.000000
Au   2.651536   0.183604   0.000000
Au  -1.484799   2.204548  -0.000000
Au  -1.166806  -2.388095   0.000000
Au  -3.984046   1.124253  -0.000000
Au   1.018391  -4.012477  -0.000000
Au   2.965669   2.888160   0.000000
Au  -2.193440  -0.152178   1.379104
Au   1.228518  -1.823491   1.379170
Au   0.964915   1.975660   1.379137
Au  -2.193440  -0.152178  -1.379104
Au   1.228518  -1.823491  -1.379170
Au   0.964915   1.975660  -1.379137
