20
-1549.36922300
Au   0.053634  -0.133810  -0.000001
Au  -0.178174   0.384680   5.220515
Au  -0.178174   0.384680  -5.220517
Au  -0.098683   0.186269   2.622104
Au  -0.098721   0.186249  -2.622097
Au  -1.089450   2.347381  -0.000000
Au  -1.437002  -2.235462  -0.000028
Au   2.605761  -0.397678   0.000021
Au   3.739286  -2.733620   0.000000
Au   0.539536   4.367527  -0.000000
Au  -4.019267  -1.989107   0.000000
Au   1.151349  -2.659790  -0.000001
Au   1.555137   1.976974   0.000001
Au  -2.505334   0.135538  -0.000000
Au  -2.284214   1.566856  -2.198198
Au  -0.121894  -2.403889  -2.270097
Au   2.386162   0.927119  -2.255730
Au  -2.284218   1.566858   2.198198
Au  -0.121891  -2.403892   2.270104
Au   2.386157   0.927117   2.255728
