20
-1549.75233400
Au  -0.000839   0.000387  -2.168232
Au  -0.000839   0.000387   2.168232
Au   5.084302  -4.081742   0.000000
Au   0.993995   6.444551   0.000000
Au  -6.077337  -2.362702   0.000000
Au  -0.103846   1.485603  -0.000000
Au  -1.235108  -0.832030  -0.000000
Au   1.337417  -0.652531   0.000000
Au  -3.481265  -2.154974  -0.000000
Au   3.604618  -1.938466   0.000000
Au  -0.123735   4.092099  -0.000000
Au   2.449680   4.295781   0.000000
Au  -4.943743  -0.027864  -0.000000
Au   2.495642  -4.269528   0.000000
Au  -2.016304  -4.270862   0.000000
Au   4.706018   0.387473   0.000000
Au  -2.688718   3.883096  -0.000000
Au   0.231451  -3.015915  -0.000000
Au   2.496333   1.708202   0.000000
Au  -2.727723   1.309035  -0.000000
