20
-1552.30184200
Au  -0.172074   0.475783  -0.000001
Au  -0.025281   0.578407  -2.672687
Au  -0.025283   0.578409   2.672685
Au  -1.393137  -0.082100  -4.779713
Au  -1.393137  -0.082098   4.779712
Au  -1.570473  -1.730418   0.000000
Au   2.399117   0.028661  -0.000001
Au  -0.588799   3.028019   0.000002
Au   3.258728  -2.062792  -1.313544
Au   0.942868   4.674512  -1.310976
Au  -3.429140  -2.982675  -1.315855
Au   3.258727  -2.062792   1.313541
Au   0.942870   4.674512   1.310979
Au  -3.429141  -2.982673   1.315855
Au   1.578336   2.139927  -1.305714
Au  -1.665472  -1.507776  -2.613338
Au   0.699215  -1.658530  -1.350352
Au   1.578338   2.139926   1.305714
Au  -1.665473  -1.507774   2.613338
Au   0.699214  -1.658528   1.350353
