20
-1543.40359100
Au  -0.000000  -0.000000  -3.859016
Au  -0.000000  -0.000000   3.859016
Au   0.000000   0.000000  -1.285943
Au   0.000000   0.000000   1.285943
Au  -5.638877   1.280793   0.000000
Au   5.638877  -1.280793   0.000000
Au  -1.280793  -5.638877  -0.000000
Au   1.280793   5.638877   0.000000
Au   5.638877   1.280793  -0.000000
Au  -5.638877  -1.280793  -0.000000
Au   1.280793  -5.638877   0.000000
Au  -1.280793   5.638877  -0.000000
Au  -3.082290  -1.280274   0.000000
Au   3.082290   1.280274  -0.000000
Au   1.280274  -3.082290  -0.000000
Au  -1.280274   3.082290   0.000000
Au   3.082290  -1.280274  -0.000000
Au  -3.082290   1.280274  -0.000000
Au  -1.280274  -3.082290  -0.000000
Au   1.280274   3.082290   0.000000
