20
-1552.27304100
Au   0.000377  -0.000207   2.272995
Au   0.000377  -0.000207  -2.272995
Au   1.087446  -1.004998  -0.000000
Au   0.326608   1.444476  -0.000000
Au  -1.414260  -0.438933  -0.000000
Au   3.633906  -1.650833  -0.000000
Au  -0.387462   3.972857  -0.000000
Au  -3.246837  -2.321308  -0.000000
Au  -3.940793   0.171379  -0.000000
Au   1.822104  -3.498309  -0.000000
Au   2.118183   3.327403  -0.000000
Au  -2.256439   2.161627  -0.000000
Au  -0.743746  -3.034468  -0.000000
Au   2.999870   0.873456  -0.000000
Au   2.136261  -1.806582   2.230424
Au   0.495783   2.752758   2.230789
Au  -2.631711  -0.947144   2.230688
Au   2.136261  -1.806582  -2.230424
Au   0.495783   2.752758  -2.230789
Au  -2.631711  -0.947144  -2.230688
