20
-1552.31672200
Au  -0.000368   0.000267  -2.274172
Au  -0.000368   0.000267   2.274172
Au   2.455240  -1.917191   0.000000
Au   0.432827   3.084100   0.000000
Au  -2.887185  -1.167239   0.000000
Au  -2.159735   3.328314   0.000000
Au  -1.802092  -3.534513   0.000000
Au   3.962223   0.206335   0.000000
Au  -3.752230   1.289010   0.000000
Au   0.760042  -3.894205   0.000000
Au   2.992685   2.604958   0.000000
Au  -1.166604   0.911082   0.000000
Au  -0.205151  -1.465932   0.000000
Au   1.372495   0.555011   0.000000
Au  -0.390404  -2.773513   2.228332
Au   2.597094   1.048656   2.228389
Au  -2.207580   1.724726   2.228105
Au  -0.390404  -2.773513  -2.228332
Au   2.597094   1.048656  -2.228389
Au  -2.207580   1.724726  -2.228105
