20
-1553.23832200
Au  -0.275858   0.121039   1.906495
Au  -0.275858   0.121039  -1.906495
Au  -1.008485   2.238853   3.309106
Au  -0.872565  -2.209654   3.124231
Au   2.266237   0.255178   1.314457
Au  -1.008485   2.238853  -3.309106
Au  -0.872565  -2.209654  -3.124231
Au   2.266237   0.255178  -1.314457
Au   0.997151  -2.151759   1.289388
Au   0.663517   2.520673   1.290845
Au  -2.470648  -1.203462   1.296816
Au   0.997151  -2.151759  -1.289388
Au   0.663517   2.520673  -1.290845
Au  -2.470648  -1.203462  -1.296816
Au   1.515606   1.530601   3.535855
Au  -2.244452  -0.049626   3.668053
Au   1.429497  -1.051844   3.607442
Au   1.515606   1.530601  -3.535855
Au  -2.244452  -0.049626  -3.668053
Au   1.429497  -1.051844  -3.607442
