20
-1553.63631100
Au  -2.478969  -2.475468  -2.475121
Au   2.478969   2.475468  -2.475121
Au   2.478969  -2.475468   2.475121
Au  -2.478969   2.475468   2.475121
Au  -2.478969  -2.475468   2.475121
Au   2.478969   2.475468   2.475121
Au  -2.478969   2.475468  -2.475121
Au   2.478969  -2.475468  -2.475121
Au  -0.000000  -1.904546  -1.904439
Au   0.000000   1.904546  -1.904439
Au   0.000000  -1.904546   1.904439
Au   0.000000   1.904546   1.904439
Au  -1.838776   0.000000  -1.906550
Au  -1.838776   0.000000   1.906550
Au   1.838776   0.000000  -1.906550
Au   1.838776   0.000000   1.906550
Au  -1.838273  -1.906527  -0.000000
Au   1.838273  -1.906527  -0.000000
Au  -1.838273   1.906527   0.000000
Au   1.838273   1.906527   0.000000
