20
-1549.36958100
Au   0.000000  -0.000000   3.805375
Au   0.000000   0.000000  -3.805375
Au   0.000000   0.000000  -1.257121
Au  -0.000000  -0.000000   1.257121
Au   1.689244   1.689244  -2.256849
Au  -1.689244  -1.689244  -2.256849
Au  -1.689244   1.689244  -2.256849
Au   1.689244  -1.689244  -2.256849
Au  -1.689244   1.689244   2.256849
Au   1.689244  -1.689244   2.256849
Au   1.689244   1.689244   2.256849
Au  -1.689244  -1.689244   2.256849
Au   3.108221   1.289939   0.000000
Au  -3.108221  -1.289939   0.000000
Au  -1.289939   3.108221   0.000000
Au   1.289939  -3.108221   0.000000
Au  -3.108221   1.289939   0.000000
Au   3.108221  -1.289939   0.000000
Au   1.289939   3.108221   0.000000
Au  -1.289939  -3.108221   0.000000
