20
-1544.87201600
Au   1.918111   0.000000   0.000000
Au  -1.918111  -0.000000  -0.000000
Au   0.000000   1.918111   0.000000
Au  -0.000000  -1.918111  -0.000000
Au   0.000000   0.000000   1.918111
Au  -0.000000  -0.000000  -1.918111
Au  -4.481114   0.000000   0.000000
Au   4.481114  -0.000000  -0.000000
Au   0.000000  -4.481115   0.000000
Au  -0.000000   4.481115  -0.000000
Au   0.000000   0.000000  -4.481114
Au  -0.000000  -0.000000   4.481114
Au   1.863442   1.863442   1.863442
Au  -1.863442  -1.863442   1.863442
Au  -1.863442   1.863442  -1.863442
Au   1.863442  -1.863442  -1.863442
Au   1.863442   1.863442  -1.863442
Au  -1.863442  -1.863442  -1.863442
Au   1.863442  -1.863442   1.863442
Au  -1.863442   1.863442   1.863442
