20
-1544.88179500
Au  -4.469240   0.000000  -0.000000
Au   4.469240  -0.000000   0.000000
Au   0.000000  -4.469240  -0.000000
Au  -0.000000   4.469240   0.000000
Au  -0.000000  -0.000000  -4.469240
Au   0.000000   0.000000   4.469240
Au  -1.906188  -0.000000   0.000000
Au   1.906188  -0.000000   0.000000
Au  -0.000000  -1.906188   0.000000
Au   0.000000   1.906188  -0.000000
Au   0.000000   0.000000  -1.906188
Au  -0.000000  -0.000000   1.906188
Au   1.863655   1.863655   1.863655
Au  -1.863655  -1.863655   1.863655
Au  -1.863655   1.863655  -1.863655
Au   1.863655  -1.863655  -1.863655
Au   1.863655   1.863655  -1.863655
Au  -1.863655  -1.863655  -1.863655
Au   1.863655  -1.863655   1.863655
Au  -1.863655   1.863655   1.863655
