20
-1553.63631400
Au  -2.475318  -2.479122  -2.475012
Au   2.475318   2.479122  -2.475012
Au   2.475318  -2.479122   2.475012
Au  -2.475318   2.479122   2.475012
Au  -2.475318  -2.479122   2.475012
Au   2.475318   2.479122   2.475012
Au  -2.475318   2.479122  -2.475012
Au   2.475318  -2.479122  -2.475012
Au  -0.000000   1.838598   1.906537
Au   0.000000  -1.838598   1.906537
Au   0.000000   1.838598  -1.906537
Au   0.000000  -1.838598  -1.906537
Au   1.904528   0.000000   1.904487
Au   1.904528   0.000000  -1.904487
Au  -1.904528   0.000000   1.904487
Au  -1.904528  -0.000000  -1.904487
Au   1.906524   1.838372  -0.000000
Au  -1.906524   1.838372  -0.000000
Au   1.906524  -1.838372  -0.000000
Au  -1.906524  -1.838372   0.000000
