20
-1545.25402100
Au  -2.537369  -2.554718  -2.538732
Au   2.553900   2.535097  -2.535479
Au   2.522162  -2.520247   2.519848
Au  -2.537885   2.538913   2.554908
Au  -2.553900  -2.535097   2.535479
Au   2.537369   2.554718   2.538732
Au  -2.522162   2.520247  -2.519848
Au   2.537885  -2.538913  -2.554908
Au  -0.000276   2.775416   2.775740
Au  -0.014383  -2.753701   2.754014
Au   0.014383   2.753701  -2.754014
Au   0.000276  -2.775416  -2.775740
Au   2.760273   0.015576   2.758644
Au   2.778735  -0.001750  -2.776846
Au  -2.778735   0.001750   2.776846
Au  -2.760273  -0.015576  -2.758644
Au   2.777890   2.775716   0.001504
Au  -2.760049   2.758159   0.015852
Au   2.760049  -2.758159  -0.015852
Au  -2.777890  -2.775716  -0.001504
