20
-1544.80075500
Au  -1.339056  -1.339056  -1.339056
Au   1.339056   1.339056  -1.339056
Au   1.339056  -1.339056   1.339056
Au  -1.339056   1.339056   1.339056
Au  -1.339056  -1.339056   1.339056
Au   1.339056   1.339056   1.339056
Au  -1.339056   1.339056  -1.339056
Au   1.339056  -1.339056  -1.339056
Au   0.000000   2.920262   2.920262
Au  -0.000000  -2.920262   2.920262
Au   0.000000   2.920262  -2.920262
Au  -0.000000  -2.920262  -2.920262
Au   2.920262   0.000000   2.920262
Au   2.920262   0.000000  -2.920262
Au  -2.920262  -0.000000   2.920262
Au  -2.920262  -0.000000  -2.920262
Au   2.920262   2.920262   0.000000
Au  -2.920262   2.920262  -0.000000
Au   2.920262  -2.920262  -0.000000
Au  -2.920262  -2.920262  -0.000000
