20
-1553.18235200
Au   2.125183   0.000001  -0.377447
Au   0.162946   0.000000  -2.077759
Au  -5.129468   0.000001   2.388495
Au  -4.811811  -0.000000  -0.215835
Au  -2.367820  -0.000000  -1.232950
Au   1.623760   0.000000   2.181574
Au   0.643010   0.000000  -4.648867
Au   4.118353   0.000000   1.309395
Au   5.074590   0.000000  -3.777933
Au  -2.745119   0.000000   1.346595
Au   4.605899   0.000001  -1.235540
Au   2.611094   0.000000  -2.959665
Au  -1.826316  -0.000001  -3.778385
Au   3.628846  -0.000001   3.851660
Au  -0.890251  -0.000000   3.155542
Au   1.184637  -0.000002   4.741121
Au  -0.313783   0.000000   0.473281
Au  -1.326555  -0.000000  -6.327468
Au  -3.183598   1.322796   3.592093
Au  -3.183599  -1.322795   3.592093
