20
-1553.03009500
Au   1.846718   0.334852   1.511412
Au   0.523691   0.203880  -3.530166
Au   1.158553   0.324239  -0.984868
Au   4.381709  -0.150739   1.818769
Au  -3.954860  -0.211666   4.869983
Au  -3.201091   0.103626   0.249475
Au  -2.456974   0.026164   2.779269
Au   2.648570  -0.232821   3.922310
Au  -0.682197   0.236660   0.892803
Au  -3.936909   0.064945  -2.293577
Au  -5.709533  -0.040818  -0.377299
Au  -1.995114   0.134200  -4.145122
Au  -4.477747  -0.014128  -4.836182
Au   3.576482   1.152902  -0.317259
Au   3.072368  -1.402108  -0.100835
Au   0.091914  -0.000867   3.403816
Au  -1.363772   0.241699  -1.632551
Au   5.196802  -0.641769   4.216330
Au   2.435021  -1.355442  -2.621370
Au   2.846369   1.227190  -2.824938
