20
-1551.86988800
Au   1.215087  -0.000000   0.982119
Au   5.964871   0.000000   2.745146
Au   3.808180   0.000000   1.322171
Au   2.850965  -0.000000  -1.141739
Au  -0.865577   0.000000  -3.835842
Au  -2.418616   0.000000  -1.695065
Au   0.157807  -0.000000  -1.394505
Au   1.722954  -0.000000  -3.505958
Au  -1.385435   0.000000   0.664449
Au   2.213507  -0.000000   3.419226
Au  -5.514291  -0.000000   2.480861
Au  -0.376771   0.000000   3.096776
Au  -3.450289   0.000000  -4.093173
Au  -2.935639   0.000000   2.768514
Au  -4.032192   0.000000   0.360299
Au  -5.025592   0.000000  -2.045743
Au   1.627323  -2.137687  -2.013380
Au   1.627323   2.137687  -2.013380
Au   2.408193  -2.145691   1.949612
Au   2.408193   2.145691   1.949612
