20
-1549.36959600
Au  -0.000000  -0.000000   1.257001
Au  -0.000000   0.000000  -1.257001
Au  -0.000000  -0.000000   3.805325
Au  -0.000000  -0.000000  -3.805325
Au   1.688562   1.688562  -2.258717
Au  -1.688562  -1.688562  -2.258717
Au  -1.688814   1.688814  -2.258188
Au   1.688814  -1.688814  -2.258188
Au  -1.688814   1.688814   2.258188
Au   1.688814  -1.688814   2.258188
Au   1.688562   1.688562   2.258717
Au  -1.688562  -1.688562   2.258717
Au  -3.107967   1.289886   0.000000
Au   3.107967  -1.289886   0.000000
Au  -1.289878  -3.107776   0.000000
Au   1.289878   3.107776   0.000000
Au   3.107776   1.289878   0.000000
Au  -3.107776  -1.289878   0.000000
Au   1.289886  -3.107967   0.000000
Au  -1.289886   3.107967   0.000000
