20
-1552.06349700
Au   2.181678   0.000000  -0.486561
Au   2.649109   0.000000  -3.069928
Au  -3.794538  -0.000000   3.442217
Au  -1.248207  -0.000000   2.804178
Au  -4.347367   0.000000  -3.499373
Au  -0.637709  -0.000000   0.234555
Au   0.693727   0.000000   4.544018
Au  -2.571896  -0.000000  -1.595306
Au  -3.153762  -0.000000   0.943249
Au  -1.828109   0.000000  -4.116239
Au   0.684704   0.000000  -4.784071
Au   3.899420  -0.000000   1.496924
Au   0.104947   0.000000  -2.253819
Au   1.325754  -0.000000   2.023895
Au   0.637819   2.125858  -0.702221
Au   0.637819  -2.125858  -0.702221
Au  -0.159918   2.198995   1.781867
Au  -0.159918  -2.198995   1.781867
Au   2.543224   2.193523   1.078484
Au   2.543224  -2.193523   1.078484
