20
-1553.69394000
Au  -1.365869   0.000000  -3.779562
Au   3.139606  -0.000000  -1.053283
Au   0.835612   0.000000   2.986080
Au  -3.674853  -0.000000   0.279815
Au   0.862743  -0.000000  -2.343277
Au   0.791281  -0.000000   0.316147
Au   3.088023  -0.000000   1.625562
Au  -1.515555  -0.000000   1.814031
Au  -3.628404   0.000000  -2.403063
Au  -1.409836  -0.000000  -1.064214
Au   0.096914   2.295059  -1.041020
Au   0.096914  -2.295059  -1.041020
Au  -2.141005   2.135549   0.361016
Au  -2.141005  -2.135549   0.361016
Au   0.093071   2.219724   1.761316
Au   0.093071  -2.219724   1.761316
Au   0.994565   4.299731   0.448479
Au   0.994565  -4.299731   0.448479
Au   2.395082   2.131618   0.281091
Au   2.395082  -2.131618   0.281091
