20
-1554.54074900
Au   3.972193   0.000000  -2.848278
Au   2.404516   0.000000   2.047412
Au  -2.005589  -0.000000   2.102708
Au  -1.654184   0.000000  -1.691307
Au   0.074931   0.000000   0.514006
Au  -1.272433  -0.000000   4.600041
Au   1.372325  -0.000000  -3.067085
Au   2.437035   0.000000  -0.662421
Au   0.297483  -1.835496  -1.433643
Au   0.297483   1.835496  -1.433643
Au  -0.767157   1.317267  -3.802539
Au  -0.767157  -1.317267  -3.802539
Au   0.265030  -1.317367   2.921254
Au   0.265030   1.317367   2.921254
Au  -3.116873  -1.301935   0.078858
Au  -3.116873   1.301935   0.078858
Au   1.633199   2.157162   0.801734
Au   1.633199  -2.157162   0.801734
Au  -0.976079   2.487890   0.936798
Au  -0.976079  -2.487890   0.936798
