20
-1552.31496500
Au  -3.599874  -0.000000  -0.254219
Au  -1.065844  -0.000000  -1.320828
Au   1.479331  -0.000000  -1.854586
Au  -1.369191  -0.000000   1.355504
Au   0.509364  -1.444139   0.213341
Au   0.509364   1.444139   0.213341
Au   3.107614   1.306964  -0.266485
Au   3.107614  -1.306964  -0.266485
Au   2.117769  -1.300206   2.308409
Au   2.117769   1.300206   2.308409
Au   2.082082   3.464956   0.852242
Au   2.082082  -3.464956   0.852242
Au  -3.533965  -1.321690   1.987110
Au  -3.533965   1.321690   1.987110
Au  -2.068250   2.137475  -0.075992
Au  -2.068250  -2.137475  -0.075992
Au   3.095185  -3.607739  -1.566137
Au   3.095185   3.607739  -1.566137
Au  -3.032011   1.327299  -2.415423
Au  -3.032011  -1.327299  -2.415423
