20
-1554.55122100
Au  -2.144481   0.000000   2.066913
Au   2.286702   0.000000   1.512029
Au   2.460184   0.000000  -2.877767
Au  -3.682407   0.000000  -0.109338
Au   1.557762   3.503029   0.807057
Au   1.557762  -3.503029   0.807057
Au   2.103126  -2.163264   2.960823
Au   2.103126   2.163264   2.960823
Au   0.007979   1.435241   1.490104
Au   0.007979  -1.435241   1.490104
Au  -0.387986   2.896539  -0.818996
Au  -0.387986  -2.896539  -0.818996
Au   1.726196   1.310142  -0.662856
Au   1.726196  -1.310142  -0.662856
Au   0.207807   1.325293  -2.858963
Au   0.207807  -1.325293  -2.858963
Au  -2.228360  -1.325181  -1.861619
Au  -2.228360   1.325181  -1.861619
Au  -2.446522  -2.186707   0.648531
Au  -2.446522   2.186707   0.648531
