20
-1553.54037200
Au   1.977265  -1.308595  -2.326414
Au   1.977264   1.308594  -2.326413
Au  -2.039109  -1.301723   0.131086
Au  -2.039114   1.301715   0.131084
Au  -1.701909   3.440254   1.582177
Au  -1.701909  -3.440252   1.582179
Au  -2.657885   1.291297   2.684154
Au  -2.657886  -1.291295   2.684155
Au  -0.444739  -1.297316  -3.390331
Au  -0.444740   1.297318  -3.390329
Au  -0.119111   1.322652   2.010659
Au  -0.119111  -1.322653   2.010660
Au   2.334162  -3.552367  -1.011908
Au   2.334163   3.552368  -1.011910
Au  -0.081173  -2.514421  -1.097978
Au  -0.081172   2.514421  -1.097978
Au   1.896296   1.312630   0.310623
Au   1.896293  -1.312631   0.310623
Au   0.836209   3.611971   1.107933
Au   0.836205  -3.611968   1.107928
