20
-1544.88970800
Au  -1.837426  -1.837425  -1.837425
Au   1.837425   1.837425  -1.837425
Au   1.837426  -1.837426   1.837426
Au  -1.837426   1.837426   1.837426
Au   1.837693   1.837693   1.837693
Au  -1.837693  -1.837693   1.837693
Au  -1.837693   1.837693  -1.837693
Au   1.837693  -1.837693  -1.837693
Au   4.672637   0.000000   0.000000
Au  -4.672637   0.000000   0.000000
Au  -0.000000   4.672637   0.000000
Au  -0.000000  -4.672637   0.000000
Au  -0.000000   0.000000   4.672637
Au  -0.000000   0.000000  -4.672637
Au   1.964581   0.000000  -0.000000
Au  -1.964581  -0.000000  -0.000000
Au   0.000000   1.964581  -0.000000
Au  -0.000000  -1.964581   0.000000
Au   0.000000  -0.000000   1.964581
Au  -0.000000   0.000000  -1.964581
