20
-1545.07365200
Au   0.000000  -0.000000  -3.884653
Au   0.000000  -0.000000   3.884653
Au   0.000000   0.000000  -1.302203
Au   0.000000  -0.000000   1.302203
Au   1.286163  -3.105051  -1.297845
Au  -1.286163   3.105051  -1.297845
Au   3.105051   1.286163  -1.297845
Au  -3.105051  -1.286163  -1.297845
Au  -1.286163  -3.105051   1.297845
Au   1.286163   3.105051   1.297845
Au  -3.105051   1.286163   1.297845
Au   3.105051  -1.286163   1.297845
Au  -1.286163   3.105051   1.297845
Au   1.286163  -3.105051   1.297845
Au  -3.105051  -1.286163   1.297845
Au   3.105051   1.286163   1.297845
Au   1.286163   3.105051  -1.297845
Au  -1.286163  -3.105051  -1.297845
Au   3.105051  -1.286163  -1.297845
Au  -3.105051   1.286163  -1.297845
