20
-1548.08263400
Au  -4.422041  -0.000000   1.821612
Au   4.422041  -0.000000   1.821612
Au   0.000000  -4.422041   1.821611
Au   0.000000   4.422041   1.821613
Au  -3.585596   0.000001  -0.649865
Au   3.585596   0.000003  -0.649865
Au  -0.000000  -3.585595  -0.649865
Au  -0.000002   3.585597  -0.649864
Au   1.865774   0.000000   1.408838
Au  -1.865774  -0.000000   1.408838
Au  -0.000000   1.865774   1.408838
Au   0.000000  -1.865774   1.408838
Au  -3.012109  -3.012114  -1.720105
Au   3.012115   3.012109  -1.720105
Au   3.012110  -3.012114  -1.720105
Au  -3.012111   3.012113  -1.720105
Au  -1.309760  -1.309759  -0.860480
Au   1.309759   1.309761  -0.860480
Au   1.309760  -1.309759  -0.860480
Au  -1.309760   1.309760  -0.860480
