20
-1552.01681300
Au  -1.546374  -1.546374  -1.546374
Au   1.546374   1.546374  -1.546374
Au   1.546374  -1.546374   1.546374
Au  -1.546374   1.546374   1.546374
Au   0.945909   0.945909   0.945909
Au  -0.945909  -0.945909   0.945909
Au  -0.945909   0.945909  -0.945909
Au   0.945909  -0.945909  -0.945909
Au  -5.763441  -0.000000  -0.000000
Au   5.763441   0.000000   0.000000
Au   0.000000  -5.763441   0.000000
Au  -0.000000   5.763441   0.000000
Au   0.000000  -0.000000  -5.763441
Au   0.000000   0.000000   5.763441
Au  -3.188899  -0.000000   0.000000
Au   3.188899   0.000000   0.000000
Au   0.000000  -3.188899   0.000000
Au  -0.000000   3.188899  -0.000000
Au   0.000000  -0.000000  -3.188899
Au   0.000000  -0.000000   3.188899
