20
-1551.94916200
Au  -0.401192   0.520773  -0.000002
Au  -0.130758  -1.850274  -1.297613
Au  -0.130758  -1.850273   1.297611
Au   0.121773  -2.239974  -3.843417
Au   0.121773  -2.239972   3.843415
Au   1.901146  -0.578138  -0.000002
Au  -0.724792   3.050132   0.000000
Au  -2.361350  -1.091546  -0.000001
Au  -3.182550   4.062788   0.000001
Au  -1.734015  -3.607250  -0.000000
Au   4.099560   0.789354   0.000000
Au  -2.828649   1.480238   0.000000
Au   1.775178   2.072006  -0.000000
Au   1.834452  -3.179280  -0.000000
Au   6.325385  -0.551244   0.000001
Au  -1.086070   5.612025   0.000002
Au  -4.250522  -2.843345   0.000001
Au   4.134592  -1.927601   0.000000
Au  -4.813141  -0.274980   0.000001
Au   1.329937   4.646559   0.000001
