20
-1551.45681400
Au  -0.000000   0.000000   0.000000
Au  -0.000000  -0.000000   2.702268
Au  -0.000000  -0.000000  -2.702267
Au  -0.000000  -0.000000  -5.311154
Au  -0.000000  -0.000000   5.311156
Au  -2.394401   1.382408   0.000003
Au  -0.000000  -2.764816   0.000003
Au   2.394401   1.382408   0.000003
Au   1.294578   2.255912  -2.184709
Au  -2.600967  -0.006818  -2.184709
Au   1.306388  -2.249094  -2.184709
Au   1.294581   2.255911   2.184707
Au  -2.600967  -0.006815   2.184707
Au   1.306385  -2.249096   2.184707
Au  -1.306388  -2.249094  -2.184709
Au  -1.294578   2.255912  -2.184709
Au   2.600967  -0.006818  -2.184709
Au  -1.306385  -2.249096   2.184707
Au  -1.294581   2.255911   2.184707
Au   2.600967  -0.006815   2.184707
