20
-1550.58678300
Au   0.000110  -0.531746   2.149465
Au   0.000110  -0.531746  -2.149465
Au   1.313647  -1.312664  -0.000000
Au   0.000329   0.980900  -0.000000
Au  -1.313699  -1.312188   0.000000
Au   5.843385  -1.496171   0.000000
Au  -0.000276   5.534748  -0.000000
Au  -5.843383  -1.496024   0.000000
Au  -1.309174   3.311084  -0.000000
Au  -3.559375  -2.715062   0.000000
Au   3.640395  -0.109385  -0.000000
Au  -3.640542  -0.109076   0.000000
Au   1.309173   3.311423  -0.000000
Au   3.559496  -2.715345  -0.000000
Au  -5.974947   1.100993   0.000000
Au   1.294703  -3.960677   0.000000
Au   3.742595   2.454964  -0.000000
Au  -3.742841   2.455241   0.000000
Au   5.974764   1.100884   0.000000
Au  -1.294470  -3.960156  -0.000000
