20
-1550.48582100
Au  -0.000000   0.000000   2.209209
Au   0.000000   0.000000  -2.209209
Au  -3.577044   2.065207   0.000000
Au   0.000000  -4.130415  -0.000000
Au   3.577044   2.065207  -0.000000
Au  -1.303720   0.752703  -0.000000
Au   0.000000  -1.505406  -0.000000
Au   1.303720   0.752703   0.000000
Au  -2.303427   1.329884   2.321029
Au   0.000000  -2.659769   2.321029
Au   2.303427   1.329884   2.321029
Au  -2.303427   1.329884  -2.321029
Au  -0.000000  -2.659769  -2.321029
Au   2.303427   1.329884  -2.321029
Au  -4.554191   2.629364  -2.328932
Au  -0.000000  -5.258727  -2.328932
Au   4.554191   2.629364  -2.328932
Au  -4.554191   2.629364   2.328932
Au  -0.000000  -5.258727   2.328932
Au   4.554191   2.629364   2.328932
