20
-1555.94237400
Au   0.000000  -0.000000   2.038997
Au   0.000000  -0.000000  -2.038997
Au   3.540046  -2.043847   0.000000
Au  -0.000000   4.087693   0.000000
Au  -3.540046  -2.043847   0.000000
Au  -3.540078   2.043865   0.000000
Au   0.000000  -4.087730   0.000000
Au   3.540078   2.043865   0.000000
Au  -1.309106   2.267358  -1.382723
Au  -1.309036  -2.267398  -1.382723
Au   2.618143   0.000040  -1.382723
Au  -1.309106   2.267358   1.382723
Au  -1.309036  -2.267398   1.382723
Au   2.618143   0.000040   1.382723
Au  -2.618143   0.000040  -1.382723
Au   1.309106   2.267358  -1.382723
Au   1.309036  -2.267398  -1.382723
Au  -2.618143   0.000040   1.382723
Au   1.309106   2.267358   1.382723
Au   1.309036  -2.267398   1.382723
