20
-1545.07365200
Au  -0.000000  -0.000000   1.302167
Au  -0.000000   0.000000  -1.302167
Au  -0.000000  -0.000000   3.884450
Au  -0.000000   0.000000  -3.884450
Au   1.286175  -3.105074   1.297807
Au  -1.286175   3.105074   1.297807
Au   3.105074   1.286175   1.297807
Au  -3.105074  -1.286175   1.297807
Au  -1.286175  -3.105074  -1.297807
Au   1.286175   3.105074  -1.297807
Au  -3.105074   1.286175  -1.297807
Au   3.105074  -1.286175  -1.297807
Au  -1.286175   3.105074  -1.297807
Au   1.286175  -3.105074  -1.297807
Au  -3.105074  -1.286175  -1.297807
Au   3.105074   1.286175  -1.297807
Au   1.286175   3.105074   1.297807
Au  -1.286175  -3.105074   1.297807
Au   3.105074  -1.286175   1.297807
Au  -3.105074   1.286175   1.297807
