20
-1552.12679700
Au  -0.000000  -0.212940  -3.563356
Au  -0.000000  -0.212940   3.563356
Au   3.221502  -0.291140  -0.000000
Au  -1.347870   2.947642  -0.000000
Au  -1.965306  -2.655714   0.000000
Au   1.965306  -2.655714   0.000000
Au  -3.221502  -0.291140  -0.000000
Au   1.347870   2.947642   0.000000
Au  -1.319927   0.779145   1.506016
Au   0.000000  -1.455061   1.293353
Au   1.319927   0.779145   1.506016
Au  -1.319927   0.779145  -1.506016
Au   0.000000  -1.455061  -1.293353
Au   1.319927   0.779145  -1.506016
Au  -3.555699   2.076156   1.300117
Au  -0.000000  -4.043390   1.281978
Au   3.555699   2.076156   1.300117
Au  -3.555699   2.076156  -1.300117
Au  -0.000000  -4.043390  -1.281978
Au   3.555699   2.076156  -1.300117
