20
-1552.85318900
Au   0.000000   0.000635  -1.831312
Au   0.000000   0.000635   1.831312
Au  -3.910041   2.256766   1.311537
Au   0.000000  -4.515127   1.311474
Au   3.910041   2.256766   1.311537
Au  -3.910041   2.256766  -1.311537
Au   0.000000  -4.515127  -1.311474
Au   3.910041   2.256766  -1.311537
Au  -1.301661   2.270956  -1.345757
Au  -1.315214  -2.262449  -1.346048
Au   2.616463  -0.008027  -1.345746
Au  -1.301661   2.270956   1.345757
Au  -1.315214  -2.262449   1.346048
Au   2.616463  -0.008027   1.345746
Au  -2.616463  -0.008027  -1.345746
Au   1.301661   2.270956  -1.345757
Au   1.315214  -2.262449  -1.346048
Au  -2.616463  -0.008027   1.345746
Au   1.301661   2.270956   1.345757
Au   1.315214  -2.262449   1.346048
