20
-1552.90619000
Au  -0.410013  -0.000001   2.109121
Au   0.410034   0.000002  -2.109124
Au   1.615342   0.000013   0.428460
Au  -1.448505   2.206301   0.968480
Au  -1.448500  -2.206264   0.968459
Au   1.448494  -2.206306  -0.968485
Au  -1.615352  -0.000013  -0.428360
Au   1.448488   2.206268  -0.968465
Au  -2.963326  -0.000001   1.761575
Au   1.149374  -2.224017   1.758862
Au   1.149375   2.224012   1.758857
Au  -1.149370   2.224029  -1.758865
Au   2.963352   0.000001  -1.761613
Au  -1.149371  -2.224023  -1.758860
Au  -2.025802  -0.000000  -2.986789
Au   0.496531  -4.142049  -2.450093
Au   0.496528   4.142061  -2.450100
Au  -0.496532   4.142053   2.450095
Au   2.025781   0.000001   2.986742
Au  -0.496528  -4.142064   2.450103
