20
-1545.07365300
Au   0.000047  -0.000083   1.302106
Au   0.000047  -0.000083  -1.302106
Au  -0.000009   0.000035  -3.884409
Au  -0.000009   0.000035   3.884409
Au  -1.286342   3.105329  -1.297837
Au   1.286317  -3.105251  -1.297829
Au  -3.105012  -1.286052  -1.297842
Au   3.104710   1.285895  -1.297845
Au   1.286003   3.105015   1.297837
Au  -1.285908  -3.104780   1.297837
Au   3.105274  -1.286373   1.297824
Au  -3.105080   1.286265   1.297836
Au   1.286317  -3.105251   1.297829
Au  -1.286342   3.105329   1.297837
Au   3.104710   1.285895   1.297845
Au  -3.105012  -1.286052   1.297842
Au  -1.285908  -3.104780  -1.297837
Au   1.286003   3.105015  -1.297837
Au  -3.105080   1.286265  -1.297836
Au   3.105274  -1.286373  -1.297824
