20
-1555.33028500
Au  -0.138639  -0.053361  -4.062005
Au   0.613861   0.183854   4.292829
Au   3.952648  -1.184894   1.568965
Au  -3.203422   1.335374   2.152586
Au  -2.242938  -1.091053   2.343370
Au   3.146291  -1.393880  -2.039933
Au  -3.312068   1.484981  -1.954031
Au   1.703813   0.789492  -2.385720
Au  -1.890218  -0.721927  -2.207378
Au   0.538211  -1.716035  -2.131592
Au  -0.718913   1.796359  -2.279486
Au  -0.586456   1.053020   2.138801
Au   1.954152   0.424774   2.032528
Au   0.305881  -1.593960   2.412729
Au  -3.158958  -0.248273   0.034489
Au   1.766130  -1.731475   0.215574
Au   0.828813   1.773767  -0.042581
Au  -1.806865   2.159192   0.087804
Au   3.202329   0.532054  -0.260764
Au  -0.953653  -1.798009   0.083815
