20
-1545.19786300
Au   0.000000  -0.000000  -1.247592
Au  -0.000000   0.000000   1.247592
Au  -1.518422   0.000000   3.328021
Au   0.759211  -1.314992   3.328021
Au   0.759211   1.314992   3.328021
Au  -0.759211   1.314992  -3.328021
Au   1.518422  -0.000000  -3.328021
Au  -0.759211  -1.314992  -3.328021
Au  -2.201750   1.271181   0.000000
Au   0.000000  -2.542362   0.000000
Au   2.201750   1.271181  -0.000000
Au   2.201750  -1.271181  -0.000000
Au  -0.000000   2.542362   0.000000
Au  -2.201750  -1.271181   0.000000
Au  -4.422951   2.553592   0.000000
Au  -0.000000  -5.107183   0.000000
Au   4.422951   2.553592   0.000000
Au   4.422951  -2.553592   0.000000
Au   0.000000   5.107183   0.000000
Au  -4.422951  -2.553592   0.000000
