20
-1547.17502800
Au   0.000814  -0.000000  -4.172728
Au  -0.000814   0.000000   4.172728
Au   1.492359   0.000000   2.053193
Au  -0.749889   1.294963   2.055223
Au  -0.749889  -1.294963   2.055223
Au   0.749889  -1.294963  -2.055223
Au  -1.492359  -0.000000  -2.053193
Au   0.749889   1.294963  -2.055223
Au  -4.555527   2.661974   0.001349
Au   0.000002  -5.274232  -0.000000
Au   4.555528   2.661972  -0.001349
Au   4.555527  -2.661974  -0.001349
Au  -0.000002   5.274232   0.000000
Au  -4.555528  -2.661972   0.001349
Au   2.318990  -1.337147  -0.000016
Au   0.000000   2.674476  -0.000000
Au  -2.318990  -1.337147   0.000016
Au  -2.318990   1.337147   0.000016
Au  -0.000000  -2.674476   0.000000
Au   2.318990   1.337147  -0.000016
