20
-1550.00326700
Au  -0.016862  -0.000002   1.315081
Au   0.016862   0.000002  -1.315081
Au  -3.629250  -0.000001   3.206959
Au   1.731782  -2.935471   3.209919
Au   1.731783   2.935470   3.209918
Au  -1.731782   2.935471  -3.209919
Au   3.629250   0.000001  -3.206959
Au  -1.731783  -2.935470  -3.209918
Au   2.269344   1.346589   1.220115
Au  -2.315001   1.332283   1.391231
Au  -0.031342  -2.631082   1.318466
Au   0.031347  -2.631084  -1.318470
Au  -2.269343   1.346589  -1.220115
Au   2.315007   1.332281  -1.391240
Au  -2.269344  -1.346589  -1.220115
Au   2.315001  -1.332283  -1.391231
Au   0.031342   2.631082  -1.318466
Au  -0.031347   2.631084   1.318470
Au   2.269343  -1.346589   1.220115
Au  -2.315007  -1.332281   1.391240
