20
-1553.98753600
Au  -0.000026   0.000000   1.708394
Au   0.000026  -0.000000  -1.708394
Au   1.327479  -1.569510   0.000058
Au  -0.000000   3.917083  -0.000001
Au  -1.327479  -1.569510  -0.000058
Au  -1.327479   1.569510  -0.000058
Au  -0.000000  -3.917083   0.000001
Au   1.327479   1.569510   0.000058
Au   2.240127  -1.298194  -2.482160
Au   0.000207   2.615464  -2.232433
Au  -2.239792  -1.298238  -2.482413
Au   2.239792  -1.298238   2.482413
Au  -2.240127  -1.298194   2.482160
Au  -0.000207   2.615463   2.232434
Au  -2.240127   1.298194   2.482160
Au  -0.000207  -2.615464   2.232433
Au   2.239792   1.298238   2.482413
Au  -2.239792   1.298238  -2.482414
Au   2.240127   1.298194  -2.482161
Au   0.000207  -2.615463  -2.232434
