20
-1555.84508600
Au   0.000000   0.001154   0.341540
Au   0.000001  -0.001488   2.978332
Au  -2.285153   1.318001   2.038304
Au   0.000014  -2.636416   2.037881
Au   2.285104   1.318061   2.038304
Au   2.177503  -1.257346   2.015033
Au   0.000053   2.510397   2.017464
Au  -2.177520  -1.257303   2.015030
Au  -2.671125   1.544585  -2.354516
Au  -0.000002  -3.087150  -2.355291
Au   2.671123   1.544583  -2.354508
Au   1.318797  -0.761885  -2.345743
Au   0.000002   1.522068  -2.342134
Au  -1.318797  -0.761888  -2.345746
Au  -2.718857   0.000725  -0.231309
Au   1.359126  -2.354889  -0.231488
Au   1.360268   2.356475  -0.229163
Au  -1.360269   2.356477  -0.229169
Au   2.718858   0.000729  -0.231325
Au  -1.359127  -2.354890  -0.231494
