20
-1555.84510500
Au  -0.000000  -0.000000  -0.342501
Au   0.000000  -0.000000  -2.979080
Au  -2.283814   1.318579  -2.037769
Au  -0.000014  -2.637129  -2.037769
Au   2.283829   1.318554  -2.037769
Au   2.176810  -1.256766  -2.015917
Au  -0.000015   2.513555  -2.015917
Au  -2.176794  -1.256793  -2.015917
Au   1.318798  -0.761409   2.344901
Au   0.000000   1.522817   2.344901
Au  -1.318799  -0.761408   2.344901
Au  -2.672655   1.543058   2.354516
Au   0.000000  -3.086116   2.354516
Au   2.672655   1.543058   2.354516
Au   2.719506   0.000105   0.230729
Au  -1.359844   2.355109   0.230729
Au  -1.359662  -2.355214   0.230729
Au   1.359662  -2.355215   0.230733
Au  -2.719507   0.000106   0.230734
Au   1.359845   2.355109   0.230733
