20
-1552.13245900
Au  -0.000002  -0.021575   5.485178
Au   0.000002  -0.005332   1.234532
Au   1.353503  -0.797021   3.413419
Au  -0.000136   1.548779   3.421399
Au  -1.353345  -0.797275   3.413409
Au   3.254853  -1.857515  -4.288957
Au  -0.000024   3.773611  -4.263669
Au  -3.254830  -1.857543  -4.288970
Au  -1.382739   0.800059  -0.893117
Au   0.000139  -1.593605  -0.903687
Au   1.382621   0.800282  -0.893123
Au   1.308971  -0.744070  -3.040733
Au  -0.000113   1.523236  -3.030509
Au  -1.308869  -0.744256  -3.040729
Au  -2.666853  -0.001429   1.281290
Au   1.331580  -2.315945   1.268974
Au   1.335463   2.303488   1.287866
Au  -1.335262   2.303617   1.287648
Au   2.666860  -0.001680   1.281054
Au  -1.331820  -2.315825   1.268725
