20
-1553.12426400
Au   0.000000   0.000000  -1.989914
Au  -0.000000   0.000000  -4.684565
Au  -2.754489   1.590305   0.381129
Au  -0.000000  -3.180610   0.381129
Au   2.754489   1.590305   0.381129
Au   1.342867  -0.775305   0.361436
Au   0.000000   1.550609   0.361436
Au  -1.342867  -0.775305   0.361436
Au  -1.325120   2.277964  -1.776926
Au  -1.310215  -2.286570  -1.776926
Au   2.635335   0.008606  -1.776926
Au  -2.635335   0.008606  -1.776926
Au   1.325120   2.277964  -1.776926
Au   1.310215  -2.286570  -1.776926
Au   2.617432   0.000416   2.518057
Au  -1.309077   2.266554   2.518057
Au  -1.308355  -2.266971   2.518057
Au   1.308355  -2.266971   2.518057
Au  -2.617432   0.000416   2.518057
Au   1.309077   2.266554   2.518057
