20
-1555.94236600
Au  -0.000000  -0.000000  -2.039639
Au  -0.000000  -0.000000   2.039639
Au  -4.088078  -0.000000  -0.000000
Au   2.044038  -3.540376  -0.000000
Au   2.044038   3.540376   0.000000
Au   4.088078  -0.000000  -0.000000
Au  -2.044038   3.540376  -0.000000
Au  -2.044038  -3.540376   0.000000
Au  -2.267760  -1.309125  -1.382540
Au   2.267610  -1.309383  -1.382539
Au   0.000149   2.618498  -1.382537
Au   2.267760   1.309125  -1.382540
Au  -2.267610   1.309383  -1.382539
Au  -0.000149  -2.618498  -1.382537
Au   0.000149  -2.618498   1.382537
Au  -2.267760   1.309125   1.382540
Au   2.267610   1.309383   1.382539
Au  -0.000149   2.618498   1.382537
Au   2.267760  -1.309125   1.382540
Au  -2.267610  -1.309383   1.382539
