20
-1555.67464000
Au  -0.000000   0.000000  -1.333273
Au   0.000000  -0.000001   1.333274
Au   2.759400  -0.000059   0.000004
Au  -1.295209   2.180299  -0.000211
Au  -1.295213  -2.180454   0.000194
Au  -2.759400   0.000060   0.000009
Au   1.295208  -2.180299  -0.000202
Au   1.295214   2.180453   0.000203
Au  -0.000622   2.584537   2.314139
Au  -2.252966  -1.289325   2.292840
Au   2.254383  -1.289496   2.292228
Au   0.000650  -2.584535   2.314138
Au   2.252953   1.289356   2.292838
Au  -2.254398   1.289464   2.292230
Au   2.254326   1.289438  -2.292239
Au  -0.000687  -2.584519  -2.314141
Au  -2.253035   1.289381  -2.292825
Au  -2.254314  -1.289464  -2.292238
Au   0.000663   2.584518  -2.314141
Au   2.253048  -1.289354  -2.292826
