20
-1545.76812200
Au   0.000000   0.000000  -4.440384
Au   0.000000   0.000000   4.440384
Au  -0.000000  -0.000000   1.873944
Au   0.000000   0.000000  -1.873944
Au   1.837881   0.000000   0.000000
Au  -1.837881   0.000000  -0.000000
Au  -0.000000   1.837881   0.000000
Au  -0.000000  -1.837881  -0.000000
Au   4.383339  -0.000000  -0.000000
Au  -4.383339   0.000000   0.000000
Au   0.000000   4.383339  -0.000000
Au  -0.000000  -4.383339   0.000000
Au  -2.505848  -2.505848   0.000000
Au   2.505848   2.505848  -0.000000
Au   2.505848  -2.505848   0.000000
Au  -2.505848   2.505848  -0.000000
Au  -4.319039  -4.319039   0.000000
Au   4.319039   4.319039  -0.000000
Au   4.319039  -4.319039   0.000000
Au  -4.319039   4.319039  -0.000000
