20
-1547.19753600
Au   0.000012  -0.000017   1.965506
Au  -0.000011   0.000016  -1.965506
Au  -0.000001   0.000001   4.561330
Au   0.000000  -0.000001  -4.561330
Au  -4.393557  -0.000000  -0.000008
Au   4.393553  -0.000000  -0.000001
Au  -0.000000  -4.393682   0.000008
Au  -0.000000   4.393677  -0.000001
Au   1.819689  -0.000008  -0.000015
Au  -1.819678   0.000003   0.000001
Au  -0.000007   1.819675   0.000018
Au   0.000004  -1.819663  -0.000005
Au  -3.087683   0.002832  -2.260743
Au   3.087700  -0.002828  -2.260745
Au  -0.002860  -3.087649  -2.260686
Au   0.002857   3.087622  -2.260676
Au   3.087687   0.002828   2.260750
Au  -3.087706  -0.002832   2.260757
Au   0.002860  -3.087619   2.260671
Au  -0.002857   3.087644   2.260674
