20
-1550.54126700
Au   3.404903  -0.248793  -0.000615
Au  -3.404903   0.248792  -0.000615
Au  -0.253486   3.405119   0.010036
Au   0.253483  -3.405118   0.010036
Au  -5.940883  -0.456532  -0.009198
Au   5.940883   0.456532  -0.009198
Au  -0.448725  -5.942242   0.007813
Au   0.448725   5.942242   0.007813
Au   1.629266   1.631802   0.039376
Au  -1.629265  -1.631804   0.039377
Au  -2.776526   2.772971  -0.028932
Au   2.776529  -2.772969  -0.028933
Au  -4.129506  -2.296083   0.040321
Au   4.129506   2.296083   0.040321
Au   2.065466  -5.284356  -0.032703
Au  -2.065466   5.284354  -0.032703
Au   5.286202  -2.058375  -0.068956
Au  -5.286203   2.058375  -0.068956
Au  -2.290377  -4.132656   0.042858
Au   2.290377   4.132657   0.042858
