20
-1553.75979200
Au   1.337922   0.013591   0.182901
Au  -1.337923  -0.013591   0.182900
Au  -0.135134   2.368516   0.333510
Au   0.135134  -2.368516   0.333510
Au   3.813923   0.146520  -0.731441
Au  -3.813922  -0.146520  -0.731441
Au   1.189530   4.605261  -0.048234
Au  -1.189530  -4.605261  -0.048234
Au  -2.416484  -2.347656  -0.496882
Au   2.416484   2.347661  -0.496880
Au   2.819563  -2.174247   0.073490
Au  -2.819563   2.174247   0.073490
Au  -1.986776   1.061125  -2.150524
Au   1.986775  -1.061129  -2.150526
Au  -0.611978  -1.197407  -2.055659
Au   0.611977   1.197407  -2.055659
Au   0.869196   1.047103   2.547068
Au  -0.869196  -1.047103   2.547068
Au   1.706827  -1.468411   2.345772
Au  -1.706827   1.468411   2.345772
