20
-1552.88211400
Au   3.198199  -0.000000   0.000000
Au  -3.198199  -0.000000   0.000000
Au   0.000000   3.198199   0.000000
Au   0.000000  -3.198199   0.000000
Au   1.377414   1.377234   1.317313
Au  -1.377414  -1.377234   1.317313
Au  -1.377234   1.377414   1.317313
Au   1.377234  -1.377414   1.317313
Au  -1.377414   1.377234  -1.317313
Au   1.377414  -1.377234  -1.317313
Au   1.377234   1.377414  -1.317313
Au  -1.377234  -1.377414  -1.317313
Au  -0.002441  -1.859321   3.545532
Au   0.002441   1.859321   3.545532
Au   1.859321  -0.002441   3.545532
Au  -1.859321   0.002441   3.545532
Au   0.002441  -1.859321  -3.545532
Au  -0.002441   1.859321  -3.545532
Au  -1.859321  -0.002441  -3.545532
Au   1.859321   0.002441  -3.545532
