20
-1549.14837600
Au  -0.000000   0.000000   4.846818
Au   0.000000   0.000000  -4.846818
Au  -0.000000   0.000000  -2.248885
Au   0.000000   0.000000   2.248885
Au   0.000000   1.356328   0.000000
Au  -0.000000  -1.356328   0.000000
Au   0.000000  -3.969405  -0.000000
Au  -0.000000   3.969405   0.000000
Au  -4.807754   0.000000   0.000000
Au   4.807754   0.000000   0.000000
Au   2.247703   0.000000   0.000000
Au  -2.247703   0.000000   0.000000
Au   1.997261   1.670063  -1.956931
Au  -1.997261  -1.670063  -1.956931
Au  -1.997261   1.670063   1.956931
Au   1.997261  -1.670063   1.956931
Au   0.355048  -2.713719  -2.255586
Au  -0.355048   2.713719  -2.255586
Au  -0.355048  -2.713719   2.255586
Au   0.355048   2.713719   2.255586
