20
-1552.71887500
Au  -0.000000   0.000000   3.816438
Au   0.000000  -0.000000  -3.816438
Au   0.000000   0.000000  -1.252432
Au  -0.000000   0.000000   1.252432
Au   0.000000  -5.131431  -0.000000
Au   0.000000   5.131431  -0.000000
Au   0.000000  -2.534629   0.000000
Au  -0.000000   2.534629  -0.000000
Au   2.257359   1.295719   0.004711
Au  -2.257359  -1.295719   0.004711
Au  -2.257359   1.295719  -0.004711
Au   2.257359  -1.295719  -0.004711
Au  -1.319914   1.932903   2.399565
Au   1.319914  -1.932903   2.399565
Au   1.319914   1.932903  -2.399565
Au  -1.319914  -1.932903  -2.399565
Au  -1.310330  -1.937993   2.403518
Au   1.310330   1.937993   2.403518
Au   1.310330  -1.937993  -2.403518
Au  -1.310330   1.937993  -2.403518
