20
-1552.44006200
Au  -0.000000  -0.000000  -1.282140
Au  -0.000000  -0.000000   1.282140
Au  -0.000000  -0.000000  -3.874993
Au   0.000000  -0.000000   3.874993
Au   0.000000  -4.961412   0.000000
Au   0.000000   4.961412  -0.000000
Au  -0.000000   2.365147   0.000000
Au  -0.000000  -2.365147  -0.000000
Au   2.295407  -1.088614   0.755515
Au  -2.295407   1.088614   0.755515
Au  -2.295407  -1.088614  -0.755515
Au   2.295407   1.088614  -0.755515
Au  -1.983903  -1.586132   1.813941
Au   1.983903   1.586132   1.813941
Au   1.983903  -1.586132  -1.813941
Au  -1.983903   1.586132  -1.813941
Au  -0.543370   2.210002   2.576284
Au   0.543370  -2.210002   2.576284
Au   0.543370   2.210002  -2.576284
Au  -0.543370  -2.210002  -2.576284
