20
-1549.48106000
Au   0.000000  -0.000000  -3.862035
Au  -0.000000  -0.000000   3.862035
Au   0.000001  -0.000000  -1.272585
Au  -0.000001  -0.000000   1.272585
Au  -0.000000   2.297079   0.000000
Au  -0.000000  -2.297080  -0.000000
Au  -0.000000  -4.860020  -0.000000
Au  -0.000000   4.860020   0.000000
Au   0.808673  -2.129843   2.528454
Au  -0.808673   2.129842   2.528455
Au  -0.808673  -2.129843  -2.528454
Au   0.808673   2.129842  -2.528455
Au   2.267806   1.157429  -0.570981
Au  -2.267805  -1.157428  -0.570981
Au  -2.267806   1.157429   0.570981
Au   2.267805  -1.157428   0.570981
Au  -1.666092   4.071688   4.003585
Au   1.666092  -4.071688   4.003585
Au   1.666092   4.071688  -4.003585
Au  -1.666092  -4.071688  -4.003585
