20
-1553.70389800
Au   0.000000   0.000000  -3.913952
Au  -0.000000  -0.000000   3.913952
Au   0.000000   0.000000  -1.301524
Au   0.000000   0.000000   1.301524
Au   0.000000   4.056806  -0.000000
Au   0.000000  -4.056806   0.000000
Au   2.324747   0.000000   0.000000
Au  -2.324747   0.000000  -0.000000
Au   1.401002  -2.238295  -1.292769
Au  -1.401002   2.238295  -1.292769
Au  -1.401002  -2.238295   1.292769
Au   1.401002   2.238295   1.292769
Au   2.268835   0.015253   2.606460
Au  -2.268835  -0.015253   2.606460
Au  -2.268835   0.015253  -2.606460
Au   2.268835  -0.015253  -2.606460
Au   1.412839   2.244699  -1.360782
Au  -1.412839  -2.244699  -1.360782
Au  -1.412839   2.244699   1.360782
Au   1.412839  -2.244699   1.360782
