20
-1553.35847200
Au  -0.000000   0.000000   3.936148
Au   0.000000   0.000000  -3.936148
Au  -0.000000   0.000000   1.334242
Au  -0.000000   0.000000  -1.334242
Au  -0.000000  -2.255460   0.000000
Au  -0.000000   2.255460   0.000000
Au   2.241014   0.000000  -0.000000
Au  -2.241014   0.000001   0.000002
Au  -0.314877  -4.512189  -1.276062
Au   0.314877   4.512189  -1.276062
Au   0.314877  -4.512189   1.276062
Au  -0.314877   4.512189   1.276062
Au   0.590159  -2.241929   2.608100
Au  -0.590159   2.241928   2.608100
Au  -0.590158  -2.241929  -2.608101
Au   0.590159   2.241929  -2.608100
Au   2.269608   0.167483  -2.612319
Au  -2.269608  -0.167483  -2.612319
Au  -2.269608   0.167483   2.612319
Au   2.269608  -0.167483   2.612319
